<?xml version="1.0" ?>
<!DOCTYPE plans SYSTEM "http://www.matsim.org/files/dtd/plans_v4.dtd">
<plans xml:lang="de-CH"><person id="1"><plan selected="yes"><act type="h" x="-14444790.300541569" y="3986339.918289321" end_time="01:00:00" /><leg mode="car" /><act type="h" x="-14442677.233345583" y="4011859.245824154" start_time="01:00:00" end_time="09:00:00" /></plan></person><person id="2"><plan selected="yes"><act type="h" x="-14459889.735719876" y="4052107.4344329867" end_time="01:00:00" /><leg mode="car" /><act type="h" x="-14438885.0851733" y="3966931.0261467188" start_time="01:00:00" end_time="09:00:00" /></plan></person><person id="3"><plan selected="yes"><act type="h" x="-14460950.93794947" y="4055219.167894317" end_time="02:00:00" /><leg mode="car" /><act type="h" x="-14448820.064494425" y="3986067.6159541653" start_time="02:00:00" end_time="10:00:00" /></plan></person><person id="4"><plan selected="yes"><act type="h" x="-14429727.276543813" y="3979665.933756185" end_time="02:00:00" /><leg mode="car" /><act type="h" x="-14445283.33911921" y="3992037.4694540985" start_time="02:00:00" end_time="10:00:00" /></plan></person><person id="5"><plan selected="yes"><act type="h" x="-14366668.041856961" y="3922067.868957163" end_time="02:00:00" /><leg mode="car" /><act type="h" x="-14414663.991140304" y="3951166.535879972" start_time="02:00:00" end_time="10:00:00" /></plan></person><person id="6"><plan selected="yes"><act type="h" x="-14440129.303277452" y="3986189.9233838357" end_time="02:00:00" /><leg mode="car" /><act type="h" x="-14410553.00281645" y="3940894.559706327" start_time="02:00:00" end_time="10:00:00" /></plan></person><person id="7"><plan selected="yes"><act type="h" x="-14410125.055883177" y="3937794.0753814387" end_time="02:00:00" /><leg mode="car" /><act type="h" x="-14379981.772157287" y="3924145.307847766" start_time="02:00:00" end_time="10:00:00" /></plan></person><person id="8"><plan selected="yes"><act type="h" x="-14393184.632193053" y="3994720.7394568413" end_time="02:00:00" /><leg mode="car" /><act type="h" x="-14406273.71419667" y="3954617.9554765173" start_time="02:00:00" end_time="10:00:00" /></plan></person><person id="9"><plan selected="yes"><act type="h" x="-14441491.403252667" y="3989659.420938182" end_time="02:00:00" /><leg mode="car" /><act type="h" x="-14453668.00187844" y="3985730.7378659924" start_time="02:00:00" end_time="10:00:00" /></plan></person><person id="10"><plan selected="yes"><act type="h" x="-14412085.237581152" y="3949391.2012529382" end_time="02:00:00" /><leg mode="car" /><act type="h" x="-14352143.131997585" y="3920788.0862676958" start_time="02:00:00" end_time="10:00:00" /></plan></person><person id="11"><plan selected="yes"><act type="h" x="-14453683.035954306" y="4025738.330940125" end_time="02:00:00" /><leg mode="car" /><act type="h" x="-14393454.76664639" y="3985415.4843857847" start_time="02:00:00" end_time="10:00:00" /></plan></person><person id="12"><plan selected="yes"><act type="h" x="-14418393.321305264" y="3947677.683805425" end_time="02:00:00" /><leg mode="car" /><act type="h" x="-14454925.752585247" y="4021055.53342206" start_time="02:00:00" end_time="10:00:00" /></plan></person><person id="13"><plan selected="yes"><act type="h" x="-14416396.244446581" y="3951071.1150658005" end_time="03:00:00" /><leg mode="car" /><act type="h" x="-14418382.997664701" y="3947671.0234438945" start_time="03:00:00" end_time="11:00:00" /></plan></person><person id="14"><plan selected="yes"><act type="h" x="-14439790.267762726" y="3977240.6250182977" end_time="03:00:00" /><leg mode="car" /><act type="h" x="-14411956.724517355" y="3946750.226844709" start_time="03:00:00" end_time="11:00:00" /></plan></person><person id="15"><plan selected="yes"><act type="h" x="-14389441.683723357" y="3924212.3539273753" end_time="03:00:00" /><leg mode="car" /><act type="h" x="-14453871.842050912" y="4014784.0707629584" start_time="03:00:00" end_time="11:00:00" /></plan></person><person id="16"><plan selected="yes"><act type="h" x="-14449884.989825955" y="4017096.7893628213" end_time="03:00:00" /><leg mode="car" /><act type="h" x="-14452901.568569213" y="3971254.8752975455" start_time="03:00:00" end_time="11:00:00" /></plan></person><person id="17"><plan selected="yes"><act type="h" x="-14437711.771415424" y="3967053.1597624375" end_time="03:00:00" /><leg mode="car" /><act type="h" x="-14469546.66032984" y="4069028.1374431504" start_time="03:00:00" end_time="11:00:00" /></plan></person><person id="18"><plan selected="yes"><act type="h" x="-14447548.634546695" y="3967129.2549895304" end_time="03:00:00" /><leg mode="car" /><act type="h" x="-14442641.890082972" y="4016409.7456336706" start_time="03:00:00" end_time="11:00:00" /></plan></person><person id="19"><plan selected="yes"><act type="h" x="-14450036.3364633" y="3989648.317626165" end_time="03:00:00" /><leg mode="car" /><act type="h" x="-14447079.292100081" y="3971617.5110450657" start_time="03:00:00" end_time="11:00:00" /></plan></person><person id="20"><plan selected="yes"><act type="h" x="-14389240.059206264" y="4008414.4988504816" end_time="03:00:00" /><leg mode="car" /><act type="h" x="-14410170.225080296" y="3937925.433439041" start_time="03:00:00" end_time="11:00:00" /></plan></person><person id="21"><plan selected="yes"><act type="h" x="-14444791.981785826" y="3989930.704889199" end_time="03:00:00" /><leg mode="car" /><act type="h" x="-14468357.81956471" y="3985201.6479698177" start_time="03:00:00" end_time="11:00:00" /></plan></person><person id="22"><plan selected="yes"><act type="h" x="-14411786.384701481" y="3943218.4702090924" end_time="03:00:00" /><leg mode="car" /><act type="h" x="-14440536.286109127" y="4072529.7780374526" start_time="03:00:00" end_time="11:00:00" /></plan></person><person id="23"><plan selected="yes"><act type="h" x="-14452901.568569213" y="3971254.8752975455" end_time="03:00:00" /><leg mode="car" /><act type="h" x="-14447104.578182982" y="3971757.344235993" start_time="03:00:00" end_time="11:00:00" /></plan></person><person id="24"><plan selected="yes"><act type="h" x="-14387404.272060694" y="3969962.7848689877" end_time="03:00:00" /><leg mode="car" /><act type="h" x="-14458929.23886319" y="3984882.592003382" start_time="03:00:00" end_time="11:00:00" /></plan></person><person id="25"><plan selected="yes"><act type="h" x="-14448133.435391687" y="3984495.349348845" end_time="03:00:00" /><leg mode="car" /><act type="h" x="-14465384.058159018" y="4065577.9643941997" start_time="03:00:00" end_time="11:00:00" /></plan></person><person id="26"><plan selected="yes"><act type="h" x="-14449835.574667972" y="4059266.009983018" end_time="03:00:00" /><leg mode="car" /><act type="h" x="-14448224.661841415" y="3983361.3721987023" start_time="03:00:00" end_time="11:00:00" /></plan></person><person id="27"><plan selected="yes"><act type="h" x="-14387665.76959078" y="3968753.0313476445" end_time="03:00:00" /><leg mode="car" /><act type="h" x="-14410130.660124274" y="3935236.2746364158" start_time="03:00:00" end_time="11:00:00" /></plan></person><person id="28"><plan selected="yes"><act type="h" x="-14442612.21842426" y="3994492.3085387037" end_time="03:00:00" /><leg mode="car" /><act type="h" x="-14392561.644461827" y="4011271.288067004" start_time="03:00:00" end_time="11:00:00" /></plan></person><person id="29"><plan selected="yes"><act type="h" x="-14445411.002660776" y="4010152.069985472" end_time="03:00:00" /><leg mode="car" /><act type="h" x="-14453247.363172658" y="3983275.569782698" start_time="03:00:00" end_time="11:00:00" /></plan></person><person id="30"><plan selected="yes"><act type="h" x="-14441233.785414385" y="4009886.072935204" end_time="03:00:00" /><leg mode="car" /><act type="h" x="-14439908.454428142" y="3976657.0954706864" start_time="03:00:00" end_time="11:00:00" /></plan></person><person id="31"><plan selected="yes"><act type="h" x="-14440424.136769945" y="3986202.468989989" end_time="03:00:00" /><leg mode="car" /><act type="h" x="-14439629.639271637" y="3982035.098917491" start_time="03:00:00" end_time="11:00:00" /></plan></person><person id="32"><plan selected="yes"><act type="h" x="-14454614.236805249" y="3978794.235431063" end_time="03:00:00" /><leg mode="car" /><act type="h" x="-14448206.342673361" y="3983496.6973860613" start_time="03:00:00" end_time="11:00:00" /></plan></person><person id="33"><plan selected="yes"><act type="h" x="-14440050.627976116" y="4006765.0291616726" end_time="04:00:00" /><leg mode="car" /><act type="h" x="-14427802.825838923" y="3986305.356390327" start_time="04:00:00" end_time="12:00:00" /></plan></person><person id="34"><plan selected="yes"><act type="h" x="-14411353.203461317" y="3990658.999787116" end_time="04:00:00" /><leg mode="car" /><act type="h" x="-14371454.004296461" y="3921370.9582211818" start_time="04:00:00" end_time="12:00:00" /></plan></person><person id="35"><plan selected="yes"><act type="h" x="-14356287.569344565" y="3947438.6793318745" end_time="04:00:00" /><leg mode="car" /><act type="h" x="-14442712.24892921" y="4022072.838052275" start_time="04:00:00" end_time="12:00:00" /></plan></person><person id="36"><plan selected="yes"><act type="h" x="-14440799.219277598" y="4004317.331721039" end_time="04:00:00" /><leg mode="car" /><act type="h" x="-14418897.320839353" y="3948079.1715864874" start_time="04:00:00" end_time="12:00:00" /></plan></person><person id="37"><plan selected="yes"><act type="h" x="-14390941.572803197" y="4010133.4648685036" end_time="04:00:00" /><leg mode="car" /><act type="h" x="-14445423.831325661" y="3989553.429316176" start_time="04:00:00" end_time="12:00:00" /></plan></person><person id="38"><plan selected="yes"><act type="h" x="-14411782.182062654" y="3951612.9120014566" end_time="04:00:00" /><leg mode="car" /><act type="h" x="-14445046.952567996" y="3982002.253364055" start_time="04:00:00" end_time="12:00:00" /></plan></person><person id="39"><plan selected="yes"><act type="h" x="-14429943.444097491" y="3986118.3340511015" end_time="04:00:00" /><leg mode="car" /><act type="h" x="-14442723.637907837" y="4016932.0673305104" start_time="04:00:00" end_time="12:00:00" /></plan></person><person id="40"><plan selected="yes"><act type="h" x="-14410677.996408716" y="3990847.929987378" end_time="04:00:00" /><leg mode="car" /><act type="h" x="-14443928.148311822" y="3986339.2881788677" start_time="04:00:00" end_time="12:00:00" /></plan></person><person id="41"><plan selected="yes"><act type="h" x="-14354228.29103944" y="3920720.949640627" end_time="04:00:00" /><leg mode="car" /><act type="h" x="-14448148.173855685" y="3984376.556405353" start_time="04:00:00" end_time="12:00:00" /></plan></person><person id="42"><plan selected="yes"><act type="h" x="-14410597.282591531" y="3940947.0932427477" end_time="04:00:00" /><leg mode="car" /><act type="h" x="-14448129.338255968" y="3983697.002180385" start_time="04:00:00" end_time="12:00:00" /></plan></person><person id="43"><plan selected="yes"><act type="h" x="-14418358.058732945" y="3947701.9713502415" end_time="04:00:00" /><leg mode="car" /><act type="h" x="-14454603.328729505" y="4025955.4840045553" start_time="04:00:00" end_time="12:00:00" /></plan></person><person id="44"><plan selected="yes"><act type="h" x="-14447348.48174418" y="3977151.821849006" end_time="04:00:00" /><leg mode="car" /><act type="h" x="-14447258.749358889" y="3976302.615238236" start_time="04:00:00" end_time="12:00:00" /></plan></person><person id="45"><plan selected="yes"><act type="h" x="-14453431.80971103" y="3985909.6220023814" end_time="04:00:00" /><leg mode="car" /><act type="h" x="-14440339.166730039" y="3988027.9204663816" start_time="04:00:00" end_time="12:00:00" /></plan></person><person id="46"><plan selected="yes"><act type="h" x="-14455976.54192238" y="4053081.87186475" end_time="04:00:00" /><leg mode="car" /><act type="h" x="-14444590.665620055" y="4000125.8290801737" start_time="04:00:00" end_time="12:00:00" /></plan></person><person id="47"><plan selected="yes"><act type="h" x="-14406930.630158344" y="4018438.3470310736" end_time="04:00:00" /><leg mode="car" /><act type="h" x="-14447398.83160712" y="4011285.59150422" start_time="04:00:00" end_time="12:00:00" /></plan></person><person id="48"><plan selected="yes"><act type="h" x="-14447544.771947745" y="3967974.080778573" end_time="04:00:00" /><leg mode="car" /><act type="h" x="-14439835.00963285" y="4003784.238943957" start_time="04:00:00" end_time="12:00:00" /></plan></person><person id="49"><plan selected="yes"><act type="h" x="-14447273.162646823" y="3975910.1870964584" end_time="04:00:00" /><leg mode="car" /><act type="h" x="-14447635.217753438" y="3968304.8220174867" start_time="04:00:00" end_time="12:00:00" /></plan></person><person id="50"><plan selected="yes"><act type="h" x="-14445646.089013835" y="4010196.529781038" end_time="04:00:00" /><leg mode="car" /><act type="h" x="-14446487.675816413" y="4013972.663366288" start_time="04:00:00" end_time="12:00:00" /></plan></person><person id="51"><plan selected="yes"><act type="h" x="-14447608.731736355" y="3967751.415269444" end_time="04:00:00" /><leg mode="car" /><act type="h" x="-14467157.580149194" y="4078500.7317618607" start_time="04:00:00" end_time="12:00:00" /></plan></person><person id="52"><plan selected="yes"><act type="h" x="-14440228.709361829" y="3986342.726889577" end_time="04:00:00" /><leg mode="car" /><act type="h" x="-14410171.473203478" y="3938279.085259978" start_time="04:00:00" end_time="12:00:00" /></plan></person><person id="53"><plan selected="yes"><act type="h" x="-14457512.327992164" y="4040240.523048169" end_time="04:00:00" /><leg mode="car" /><act type="h" x="-14402286.22501029" y="4017606.0321116876" start_time="04:00:00" end_time="12:00:00" /></plan></person><person id="54"><plan selected="yes"><act type="h" x="-14438342.966479536" y="3967035.284895684" end_time="04:00:00" /><leg mode="car" /><act type="h" x="-14439079.496321488" y="3974298.046951405" start_time="04:00:00" end_time="12:00:00" /></plan></person><person id="55"><plan selected="yes"><act type="h" x="-14447545.216779755" y="3970439.457232827" end_time="04:00:00" /><leg mode="car" /><act type="h" x="-14410185.853840722" y="3935174.9323217478" start_time="04:00:00" end_time="12:00:00" /></plan></person><person id="56"><plan selected="yes"><act type="h" x="-14440134.155784532" y="4008046.66339717" end_time="04:00:00" /><leg mode="car" /><act type="h" x="-14447494.650447845" y="3978804.999325781" start_time="04:00:00" end_time="12:00:00" /></plan></person><person id="57"><plan selected="yes"><act type="h" x="-14409671.619391631" y="3952901.076084944" end_time="04:00:00" /><leg mode="car" /><act type="h" x="-14403884.722766714" y="3931258.5120703364" start_time="04:00:00" end_time="12:00:00" /></plan></person><person id="58"><plan selected="yes"><act type="h" x="-14461004.350496124" y="4055360.5895463745" end_time="04:00:00" /><leg mode="car" /><act type="h" x="-14480375.481552463" y="3977548.708979076" start_time="04:00:00" end_time="12:00:00" /></plan></person><person id="59"><plan selected="yes"><act type="h" x="-14455784.8115899" y="4015094.043949214" end_time="04:00:00" /><leg mode="car" /><act type="h" x="-14447603.560225653" y="3968215.2083909092" start_time="04:00:00" end_time="12:00:00" /></plan></person><person id="60"><plan selected="yes"><act type="h" x="-14447251.062911982" y="4014455.14519067" end_time="04:00:00" /><leg mode="car" /><act type="h" x="-14401540.420313552" y="4017060.676932533" start_time="04:00:00" end_time="12:00:00" /></plan></person><person id="61"><plan selected="yes"><act type="h" x="-14459755.943907667" y="4052809.627973161" end_time="04:00:00" /><leg mode="car" /><act type="h" x="-14454437.808074262" y="4026186.491993078" start_time="04:00:00" end_time="12:00:00" /></plan></person><person id="62"><plan selected="yes"><act type="h" x="-14469314.301981354" y="3986702.116558128" end_time="04:00:00" /><leg mode="car" /><act type="h" x="-14442034.748495074" y="3997086.9283267697" start_time="04:00:00" end_time="12:00:00" /></plan></person><person id="63"><plan selected="yes"><act type="h" x="-14449164.693089798" y="3989193.6956191235" end_time="04:00:00" /><leg mode="car" /><act type="h" x="-14440103.001751501" y="3985844.138995165" start_time="04:00:00" end_time="12:00:00" /></plan></person><person id="64"><plan selected="yes"><act type="h" x="-14366002.934781121" y="3921918.038305368" end_time="04:00:00" /><leg mode="car" /><act type="h" x="-14402259.473555377" y="3988994.0558594624" start_time="04:00:00" end_time="12:00:00" /></plan></person><person id="65"><plan selected="yes"><act type="h" x="-14439858.527144864" y="3984128.625544483" end_time="04:00:00" /><leg mode="car" /><act type="h" x="-14454128.660054581" y="4014822.1522223614" start_time="04:00:00" end_time="12:00:00" /></plan></person><person id="66"><plan selected="yes"><act type="h" x="-14475536.819830175" y="4071201.140281421" end_time="04:00:00" /><leg mode="car" /><act type="h" x="-14449694.13441735" y="4054421.097108055" start_time="04:00:00" end_time="12:00:00" /></plan></person><person id="67"><plan selected="yes"><act type="h" x="-14445584.586356204" y="4010166.241244067" end_time="04:00:00" /><leg mode="car" /><act type="h" x="-14445062.604256365" y="3981862.857483162" start_time="04:00:00" end_time="12:00:00" /></plan></person><person id="68"><plan selected="yes"><act type="h" x="-14449498.589347674" y="3989592.848312089" end_time="04:00:00" /><leg mode="car" /><act type="h" x="-14439708.600328932" y="3966386.476505566" start_time="04:00:00" end_time="12:00:00" /></plan></person><person id="69"><plan selected="yes"><act type="h" x="-14445047.813259346" y="3983080.4557197485" end_time="04:00:00" /><leg mode="car" /><act type="h" x="-14440527.402206521" y="3998950.4458338968" start_time="04:00:00" end_time="12:00:00" /></plan></person><person id="70"><plan selected="yes"><act type="h" x="-14387428.964147028" y="3970564.031020658" end_time="05:00:00" /><leg mode="car" /><act type="h" x="-14446399.091940442" y="3986300.091482625" start_time="05:00:00" end_time="13:00:00" /></plan></person><person id="71"><plan selected="yes"><act type="h" x="-14449114.825747862" y="3989424.2639838303" end_time="05:00:00" /><leg mode="car" /><act type="h" x="-14387317.975387601" y="3968950.894174301" start_time="05:00:00" end_time="13:00:00" /></plan></person><person id="72"><plan selected="yes"><act type="h" x="-14440218.4632468" y="3985940.5330137606" end_time="05:00:00" /><leg mode="car" /><act type="h" x="-14453708.436610317" y="3985751.5296546803" start_time="05:00:00" end_time="13:00:00" /></plan></person><person id="73"><plan selected="yes"><act type="h" x="-14396410.551357303" y="3988475.5538522727" end_time="05:00:00" /><leg mode="car" /><act type="h" x="-14477865.730253786" y="3981935.797969297" start_time="05:00:00" end_time="13:00:00" /></plan></person><person id="74"><plan selected="yes"><act type="h" x="-14442675.721017769" y="4016647.1391424765" end_time="05:00:00" /><leg mode="car" /><act type="h" x="-14473782.711529829" y="4070438.0584728373" start_time="05:00:00" end_time="13:00:00" /></plan></person><person id="75"><plan selected="yes"><act type="h" x="-14445120.039079469" y="3981180.4130869806" end_time="05:00:00" /><leg mode="car" /><act type="h" x="-14458170.942902835" y="4044225.6897837888" start_time="05:00:00" end_time="13:00:00" /></plan></person><person id="76"><plan selected="yes"><act type="h" x="-14440303.760305585" y="4007229.532543106" end_time="05:00:00" /><leg mode="car" /><act type="h" x="-14454123.684142072" y="3985811.167549089" start_time="05:00:00" end_time="13:00:00" /></plan></person><person id="77"><plan selected="yes"><act type="h" x="-14387373.407247826" y="3969275.3423499693" end_time="05:00:00" /><leg mode="car" /><act type="h" x="-14445292.808069881" y="3983753.4972780775" start_time="05:00:00" end_time="13:00:00" /></plan></person><person id="78"><plan selected="yes"><act type="h" x="-14411663.877718726" y="3941677.232385152" end_time="05:00:00" /><leg mode="car" /><act type="h" x="-14402078.77398688" y="3985435.5991487075" start_time="05:00:00" end_time="13:00:00" /></plan></person><person id="79"><plan selected="yes"><act type="h" x="-14386642.991469447" y="4000691.766252011" end_time="05:00:00" /><leg mode="car" /><act type="h" x="-14367838.337030262" y="3921846.532214653" start_time="05:00:00" end_time="13:00:00" /></plan></person><person id="80"><plan selected="yes"><act type="h" x="-14442585.556987686" y="4014644.757525235" end_time="05:00:00" /><leg mode="car" /><act type="h" x="-14441427.418750087" y="4009895.975511909" start_time="05:00:00" end_time="13:00:00" /></plan></person><person id="81"><plan selected="yes"><act type="h" x="-14440475.960338445" y="3988377.6341254893" end_time="05:00:00" /><leg mode="car" /><act type="h" x="-14410554.668432293" y="3940382.1878713556" start_time="05:00:00" end_time="13:00:00" /></plan></person><person id="82"><plan selected="yes"><act type="h" x="-14451530.878697816" y="4054344.092393786" end_time="05:00:00" /><leg mode="car" /><act type="h" x="-14442919.042620745" y="3994275.3013602872" start_time="05:00:00" end_time="13:00:00" /></plan></person><person id="83"><plan selected="yes"><act type="h" x="-14440227.70054228" y="4008343.5600752216" end_time="05:00:00" /><leg mode="car" /><act type="h" x="-14393182.318952817" y="3994882.787109291" start_time="05:00:00" end_time="13:00:00" /></plan></person><person id="84"><plan selected="yes"><act type="h" x="-14444873.264066648" y="4009655.3071529386" end_time="05:00:00" /><leg mode="car" /><act type="h" x="-14438829.438969249" y="3971763.5587240285" start_time="05:00:00" end_time="13:00:00" /></plan></person><person id="85"><plan selected="yes"><act type="h" x="-14397453.803022515" y="3989596.275818441" end_time="05:00:00" /><leg mode="car" /><act type="h" x="-14448971.045791203" y="3986506.25170608" start_time="05:00:00" end_time="13:00:00" /></plan></person><person id="86"><plan selected="yes"><act type="h" x="-14419404.793115124" y="3951568.4736155863" end_time="05:00:00" /><leg mode="car" /><act type="h" x="-14387303.574311469" y="3971214.760624763" start_time="05:00:00" end_time="13:00:00" /></plan></person><person id="87"><plan selected="yes"><act type="h" x="-14411761.474153986" y="3942309.6110405982" end_time="05:00:00" /><leg mode="car" /><act type="h" x="-14460680.876343207" y="4054822.849688767" start_time="05:00:00" end_time="13:00:00" /></plan></person><person id="88"><plan selected="yes"><act type="h" x="-14437943.696358224" y="3978413.4206625978" end_time="05:00:00" /><leg mode="car" /><act type="h" x="-14389679.546769304" y="3975859.056940681" start_time="05:00:00" end_time="13:00:00" /></plan></person><person id="89"><plan selected="yes"><act type="h" x="-14440520.44557792" y="3986499.712414391" end_time="05:00:00" /><leg mode="car" /><act type="h" x="-14374068.300842814" y="3958802.8089553146" start_time="05:00:00" end_time="13:00:00" /></plan></person><person id="90"><plan selected="yes"><act type="h" x="-14419353.399323452" y="3950894.9195778095" end_time="05:00:00" /><leg mode="car" /><act type="h" x="-14442500.157577097" y="4014507.5059819967" start_time="05:00:00" end_time="13:00:00" /></plan></person><person id="91"><plan selected="yes"><act type="h" x="-14459815.000363216" y="4052614.9229085436" end_time="05:00:00" /><leg mode="car" /><act type="h" x="-14439116.63496211" y="3974111.966365174" start_time="05:00:00" end_time="13:00:00" /></plan></person><person id="92"><plan selected="yes"><act type="h" x="-14394989.021222118" y="3960777.766032133" end_time="05:00:00" /><leg mode="car" /><act type="h" x="-14468972.56241093" y="3985170.8828362953" start_time="05:00:00" end_time="13:00:00" /></plan></person><person id="93"><plan selected="yes"><act type="h" x="-14403989.237865254" y="3955739.2713490655" end_time="05:00:00" /><leg mode="car" /><act type="h" x="-14440068.443148207" y="4007164.7283610613" start_time="05:00:00" end_time="13:00:00" /></plan></person><person id="94"><plan selected="yes"><act type="h" x="-14480763.661394658" y="3974819.8735962776" end_time="05:00:00" /><leg mode="car" /><act type="h" x="-14399554.770846557" y="3960105.7041872246" start_time="05:00:00" end_time="13:00:00" /></plan></person><person id="95"><plan selected="yes"><act type="h" x="-14451371.060923003" y="4018437.9521069494" end_time="05:00:00" /><leg mode="car" /><act type="h" x="-14456079.694463832" y="4037200.2215663036" start_time="05:00:00" end_time="13:00:00" /></plan></person><person id="96"><plan selected="yes"><act type="h" x="-14440158.816793794" y="3986195.682306144" end_time="05:00:00" /><leg mode="car" /><act type="h" x="-14459604.83478593" y="4052800.5851473697" start_time="05:00:00" end_time="13:00:00" /></plan></person><person id="97"><plan selected="yes"><act type="h" x="-14475135.513284162" y="4070941.1050334563" end_time="05:00:00" /><leg mode="car" /><act type="h" x="-14459751.506693471" y="4052813.3196068043" start_time="05:00:00" end_time="13:00:00" /></plan></person><person id="98"><plan selected="yes"><act type="h" x="-14445024.30828143" y="3986322.7909937627" end_time="05:00:00" /><leg mode="car" /><act type="h" x="-14392795.345216084" y="3995349.2779694987" start_time="05:00:00" end_time="13:00:00" /></plan></person><person id="99"><plan selected="yes"><act type="h" x="-14440167.126563149" y="4005925.61117862" end_time="05:00:00" /><leg mode="car" /><act type="h" x="-14419774.875607723" y="3952031.587600943" start_time="05:00:00" end_time="13:00:00" /></plan></person><person id="100"><plan selected="yes"><act type="h" x="-14447241.339099692" y="3975890.1896894076" end_time="05:00:00" /><leg mode="car" /><act type="h" x="-14435217.473275654" y="4023628.3171459697" start_time="05:00:00" end_time="13:00:00" /></plan></person><person id="101"><plan selected="yes"><act type="h" x="-14447151.260926574" y="3972651.4021913367" end_time="05:00:00" /><leg mode="car" /><act type="h" x="-14419290.494001953" y="3949504.839369524" start_time="05:00:00" end_time="13:00:00" /></plan></person><person id="102"><plan selected="yes"><act type="h" x="-14392498.382525325" y="4011005.0947255455" end_time="05:00:00" /><leg mode="car" /><act type="h" x="-14453656.570158122" y="4025714.228931936" start_time="05:00:00" end_time="13:00:00" /></plan></person><person id="103"><plan selected="yes"><act type="h" x="-14392421.744055321" y="4011128.961833051" end_time="05:00:00" /><leg mode="car" /><act type="h" x="-14441422.750708047" y="4009904.762176153" start_time="05:00:00" end_time="13:00:00" /></plan></person><person id="104"><plan selected="yes"><act type="h" x="-14417610.768731609" y="3947003.3273261846" end_time="05:00:00" /><leg mode="car" /><act type="h" x="-14430208.84990588" y="3986482.0826551514" start_time="05:00:00" end_time="13:00:00" /></plan></person><person id="105"><plan selected="yes"><act type="h" x="-14441327.775389442" y="3989418.7829483687" end_time="05:00:00" /><leg mode="car" /><act type="h" x="-14444895.701824956" y="4009599.5407988634" start_time="05:00:00" end_time="13:00:00" /></plan></person><person id="106"><plan selected="yes"><act type="h" x="-14437979.516280515" y="4023369.3123381888" end_time="05:00:00" /><leg mode="car" /><act type="h" x="-14445283.622000372" y="3989290.250033415" start_time="05:00:00" end_time="13:00:00" /></plan></person><person id="107"><plan selected="yes"><act type="h" x="-14448680.461102333" y="3986224.204802218" end_time="05:00:00" /><leg mode="car" /><act type="h" x="-14439481.546437046" y="3977760.0327397785" start_time="05:00:00" end_time="13:00:00" /></plan></person><person id="108"><plan selected="yes"><act type="h" x="-14447663.380847197" y="4014953.0129698683" end_time="05:00:00" /><leg mode="car" /><act type="h" x="-14458935.009985864" y="3984907.1908322624" start_time="05:00:00" end_time="13:00:00" /></plan></person><person id="109"><plan selected="yes"><act type="h" x="-14447083.741641575" y="3970967.4367270605" end_time="05:00:00" /><leg mode="car" /><act type="h" x="-14394883.903881028" y="3984402.8549259133" start_time="05:00:00" end_time="13:00:00" /></plan></person><person id="110"><plan selected="yes"><act type="h" x="-14447972.777866626" y="4015339.5307249143" end_time="05:00:00" /><leg mode="car" /><act type="h" x="-14398099.018342467" y="3960786.9272159897" start_time="05:00:00" end_time="13:00:00" /></plan></person><person id="111"><plan selected="yes"><act type="h" x="-14393517.781452429" y="3985702.920410226" end_time="05:00:00" /><leg mode="car" /><act type="h" x="-14408343.243477019" y="3990709.7650111862" start_time="05:00:00" end_time="13:00:00" /></plan></person><person id="112"><plan selected="yes"><act type="h" x="-14445226.372615758" y="3991169.896758991" end_time="05:00:00" /><leg mode="car" /><act type="h" x="-14465223.076980522" y="3989188.721877891" start_time="05:00:00" end_time="13:00:00" /></plan></person><person id="113"><plan selected="yes"><act type="h" x="-14440269.044106396" y="4007373.883716931" end_time="05:00:00" /><leg mode="car" /><act type="h" x="-14402782.744115585" y="3989140.8957857005" start_time="05:00:00" end_time="13:00:00" /></plan></person><person id="114"><plan selected="yes"><act type="h" x="-14440083.545969967" y="4075882.947756416" end_time="05:00:00" /><leg mode="car" /><act type="h" x="-14375105.348873608" y="3960843.3956526485" start_time="05:00:00" end_time="13:00:00" /></plan></person><person id="115"><plan selected="yes"><act type="h" x="-14447577.364850767" y="3968079.721289473" end_time="05:00:00" /><leg mode="car" /><act type="h" x="-14396962.100758849" y="3983868.205292264" start_time="05:00:00" end_time="13:00:00" /></plan></person><person id="116"><plan selected="yes"><act type="h" x="-14455580.058005469" y="4033045.0998678957" end_time="05:00:00" /><leg mode="car" /><act type="h" x="-14442769.744539296" y="4016616.849917421" start_time="05:00:00" end_time="13:00:00" 