<?xml version="1.0" ?>
<!DOCTYPE plans SYSTEM "http://www.matsim.org/files/dtd/plans_v4.dtd">
<plans xml:lang="de-CH"><person id="1"><plan selected="yes"><act type="h" x="-14444791.981785826" y="3989930.704889199" end_time="06:00:00" /><leg mode="car" /><act type="h" x="-14443194.411707437" y="3986325.463332211" start_time="06:00:00" end_time="14:00:00" /></plan></person><person id="2"><plan selected="yes"><act type="h" x="-14444274.612177592" y="3986270.9869309645" end_time="06:00:00" /><leg mode="car" /><act type="h" x="-14445108.695417596" y="3987649.4165995526" start_time="06:00:00" end_time="14:00:00" /></plan></person><person id="3"><plan selected="yes"><act type="h" x="-14441621.222164245" y="3989846.0418078043" end_time="06:00:00" /><leg mode="car" /><act type="h" x="-14443924.42784295" y="3986299.0773804886" start_time="06:00:00" end_time="14:00:00" /></plan></person><person id="4"><plan selected="yes"><act type="h" x="-14449097.63001108" y="3988220.396726886" end_time="07:00:00" /><leg mode="car" /><act type="h" x="-14442125.582379865" y="3989985.2650919785" start_time="07:00:00" end_time="15:00:00" /></plan></person><person id="5"><plan selected="yes"><act type="h" x="-14448561.239938812" y="3986139.534653083" end_time="07:00:00" /><leg mode="car" /><act type="h" x="-14440536.168048838" y="3988449.254442591" start_time="07:00:00" end_time="15:00:00" /></plan></person><person id="6"><plan selected="yes"><act type="h" x="-14444114.073447702" y="3989957.088394899" end_time="08:00:00" /><leg mode="car" /><act type="h" x="-14443584.233456286" y="3986282.772498377" start_time="08:00:00" end_time="16:00:00" /></plan></person><person id="7"><plan selected="yes"><act type="h" x="-14440256.610944131" y="3987154.524083661" end_time="08:00:00" /><leg mode="car" /><act type="h" x="-14441583.58788619" y="3986401.095165197" start_time="08:00:00" end_time="16:00:00" /></plan></person><person id="8"><plan selected="yes"><act type="h" x="-14441473.472435523" y="3989649.252982147" end_time="08:00:00" /><leg mode="car" /><act type="h" x="-14445097.863922726" y="3987692.0692201233" start_time="08:00:00" end_time="16:00:00" /></plan></person><person id="9"><plan selected="yes"><act type="h" x="-14443850.077689124" y="3986318.4646144896" end_time="09:00:00" /><leg mode="car" /><act type="h" x="-14440322.602535991" y="3987756.6407640115" start_time="09:00:00" end_time="17:00:00" /></plan></person><person id="10"><plan selected="yes"><act type="h" x="-14444473.869613884" y="3986290.6165772" end_time="12:00:00" /><leg mode="car" /><act type="h" x="-14444344.312760353" y="3990005.771342049" start_time="12:00:00" end_time="20:00:00" /></plan></person><person id="11"><plan selected="yes"><act type="h" x="-14441257.308671122" y="3989280.04139004" end_time="14:00:00" /><leg mode="car" /><act type="h" x="-14444264.564618392" y="3990077.612930026" start_time="14:00:00" end_time="22:00:00" /></plan></person><person id="12"><plan selected="yes"><act type="h" x="-14446970.682944587" y="3986297.989965494" end_time="15:00:00" /><leg mode="car" /><act type="h" x="-14444502.167755006" y="3986284.602054987" start_time="15:00:00" end_time="23:00:00" /></plan></person><person id="13"><plan selected="yes"><act type="h" x="-14441117.906365713" y="3989008.8671864043" end_time="16:00:00" /><leg mode="car" /><act type="h" x="-14448564.23953142" y="3989699.4439721233" start_time="16:00:00" end_time="00:00:00" /></plan></person><person id="14"><plan selected="yes"><act type="h" x="-14441659.781096194" y="3990015.909501311" end_time="16:00:00" /><leg mode="car" /><act type="h" x="-14440802.278413344" y="3988679.774347864" start_time="16:00:00" end_time="00:00:00" /></plan></person><person id="15"><plan selected="yes"><act type="h" x="-14441668.208593503" y="3986439.970559207" end_time="17:00:00" /><leg mode="car" /><act type="h" x="-14445084.1031721" y="3986983.3782452475" start_time="17:00:00" end_time="01:00:00" /></plan></person><person id="16"><plan selected="yes"><act type="h" x="-14441376.673570037" y="3989840.1944717634" end_time="17:00:00" /><leg mode="car" /><act type="h" x="-14449349.730698204" y="3987678.2452807613" start_time="17:00:00" end_time="01:00:00" /></plan></person><person id="17"><plan selected="yes"><act type="h" x="-14443648.705791792" y="3986353.188218276" end_time="19:00:00" /><leg mode="car" /><act type="h" x="-14443826.059272524" y="3990003.527358025" start_time="19:00:00" end_time="03:00:00" /></plan></person><person id="18"><plan selected="yes"><act type="h" x="-14441778.043281952" y="3989977.2395005277" end_time="19:00:00" /><leg mode="car" /><act type="h" x="-14449117.094509624" y="3988240.535164295" start_time="19:00:00" end_time="03:00:00" /></plan></person><person id="19"><plan selected="yes"><act type="h" x="-14448999.007434174" y="3989294.679493134" end_time="19:00:00" /><leg mode="car" /><act type="h" x="-14445275.471134247" y="3989703.146240142" start_time="19:00:00" end_time="03:00:00" /></plan></person><person id="20"><plan selected="yes"><act type="h" x="-14448899.753507216" y="3986273.7370811272" end_time="21:00:00" /><leg mode="car" /><act type="h" x="-14447433.567944523" y="3989670.120216741" start_time="21:00:00" end_time="05:00:00" /></plan></person></plans>