<?xml version="1.0"?>
<!DOCTYPE plans SYSTEM "http://www.matsim.org/files/dtd/plans_v4.dtd">
<plans xml:lang="de-CH">
	<person id="1">
		<plan selected="yes">
			<act type="h" x="-14445120.132495666" y="3986535.539176674" end_time="08:00:00" />
			<leg mode="car" />
			<act type="w" x="-14449098.285591403" y="3989686.0726606585" start_time="08:00:00" end_time="17:00:00" />
			<leg mode="car" />
			<act type="h" x="-14445120.132495666" y="3986535.539176674" />
		</plan>
	</person>
	<person id="2">
		<plan selected="yes">
			<act type="h" x="-14445159.969459105" y="3986301.5179089475" end_time="08:00:00" />
			<leg mode="car" />
			<act type="w" x="-14445021.521984363" y="3987458.1063980027" start_time="08:00:00" end_time="17:00:00" />
			<leg mode="car" />
			<act type="h" x="-14445159.969459105" y="3986301.5179089475" />
		</plan>
	</person>
	<person id="3">
		<plan selected="yes">
			<act type="h" x="-14448950.092782147" y="3986388.158525997" end_time="08:00:00" />
			<leg mode="car" />
			<act type="w" x="-14445219.15342364" y="3989593.1398118385" start_time="08:00:00" end_time="17:00:00" />
			<leg mode="car" />
			<act type="h" x="-14448950.092782147" y="3986388.158525997" />
		</plan>
	</person>
	<person id="4">
		<plan selected="yes">
			<act type="h" x="-14448906.14699575" y="3986296.3373709465" end_time="08:00:00" />
			<leg mode="car" />
			<act type="w" x="-14440580.991085712" y="3986571.6931719123" start_time="08:00:00" end_time="17:00:00" />
			<leg mode="car" />
			<act type="h" x="-14448906.14699575" y="3986296.3373709465" />
		</plan>
	</person>
	<person id="5">
		<plan selected="yes">
			<act type="h" x="-14441156.926635962" y="3989212.0220484515" end_time="08:00:00" />
			<leg mode="car" />
			<act type="w" x="-14446868.447384942" y="3986390.2411054242" start_time="08:00:00" end_time="17:00:00" />
			<leg mode="car" />
			<act type="h" x="-14441156.926635962" y="3989212.0220484515" />
		</plan>
	</person>
	<person id="6">
		<plan selected="yes">
			<act type="h" x="-14449136.559915287" y="3989470.608427887" end_time="08:00:00" />
			<leg mode="car" />
			<act type="w" x="-14444205.434720492" y="3986295.682522406" start_time="08:00:00" end_time="17:00:00" />
			<leg mode="car" />
			<act type="h" x="-14449136.559915287" y="3989470.608427887" />
		</plan>
	</person>
	<person id="7">
		<plan selected="yes">
			<act type="h" x="-14448905.713678053" y="3986287.1020550835" end_time="08:00:00" />
			<leg mode="car" />
			<act type="w" x="-14443801.059965253" y="3986248.3936309814" start_time="08:00:00" end_time="17:00:00" />
			<leg mode="car" />
			<act type="h" x="-14448905.713678053" y="3986287.1020550835" />
		</plan>
	</person>
	<person id="8">
		<plan selected="yes">
			<act type="h" x="-14445444.466654379" y="3989388.911882009" end_time="08:00:00" />
			<leg mode="car" />
			<act type="w" x="-14445036.918861791" y="3987328.8253532923" start_time="08:00:00" end_time="17:00:00" />
			<leg mode="car" />
			<act type="h" x="-14445444.466654379" y="3989388.911882009" />
		</plan>
	</person>
	<person id="9">
		<plan selected="yes">
			<act type="h" x="-14440494.84670961" y="3988405.997975875" end_time="08:00:00" />
			<leg mode="car" />
			<act type="w" x="-14444082.581197323" y="3990029.763736367" start_time="08:00:00" end_time="17:00:00" />
			<leg mode="car" />
			<act type="h" x="-14440494.84670961" y="3988405.997975875" />
		</plan>
	</person>
	<person id="10">
		<plan selected="yes">
			<act type="h" x="-14449079.305741413" y="3988317.6015553973" end_time="08:00:00" />
			<leg mode="car" />
			<act type="w" x="-14447003.690907393" y="3986296.597933687" start_time="08:00:00" end_time="17:00:00" />
			<leg mode="car" />
			<act type="h" x="-14449079.305741413" y="3988317.6015553973" />
		</plan>
	</person>
</plans>
