<?xml version="1.0" ?>
<!DOCTYPE plans SYSTEM "http://www.matsim.org/files/dtd/plans_v4.dtd">
<plans xml:lang="de-CH"><person id="1"><plan selected="yes"><act type="h" x="-14445739.301886853" y="3989910.490777338" end_time="00:08:00" /><leg mode="car" /><act type="h" x="-14441509.59784064" y="3989984.0001794267" start_time="00:08:00" end_time="08:08:00" /></plan></person><person id="2"><plan selected="yes"><act type="h" x="-14445739.301886853" y="3989910.490777338" end_time="00:36:00" /><leg mode="car" /><act type="h" x="-14449375.243744638" y="3989720.099050841" start_time="00:36:00" end_time="08:36:00" /></plan></person><person id="3"><plan selected="yes"><act type="h" x="-14441509.59784064" y="3989984.0001794267" end_time="00:54:00" /><leg mode="car" /><act type="h" x="-14445739.301886853" y="3989910.490777338" start_time="00:54:00" end_time="08:54:00" /></plan></person><person id="4"><plan selected="yes"><act type="h" x="-14441509.59784064" y="3989984.0001794267" end_time="00:51:00" /><leg mode="car" /><act type="h" x="-14449375.243744638" y="3989720.099050841" start_time="00:51:00" end_time="08:51:00" /></plan></person><person id="5"><plan selected="yes"><act type="h" x="-14449375.243744638" y="3989720.099050841" end_time="00:48:00" /><leg mode="car" /><act type="h" x="-14445739.301886853" y="3989910.490777338" start_time="00:48:00" end_time="08:48:00" /></plan></person><person id="6"><plan selected="yes"><act type="h" x="-14449375.243744638" y="3989720.099050841" end_time="00:04:00" /><leg mode="car" /><act type="h" x="-14441509.59784064" y="3989984.0001794267" start_time="00:04:00" end_time="08:04:00" /></plan></person><person id="7"><plan selected="yes"><act type="h" x="-14449375.243744638" y="3989720.099050841" end_time="00:16:00" /><leg mode="car" /><act type="h" x="-14441509.59784064" y="3989984.0001794267" start_time="00:16:00" end_time="08:16:00" /></plan></person><person id="8"><plan selected="yes"><act type="h" x="-14449375.243744638" y="3989720.099050841" end_time="00:07:00" /><leg mode="car" /><act type="h" x="-14441509.59784064" y="3989984.0001794267" start_time="00:07:00" end_time="08:07:00" /></plan></person><person id="9"><plan selected="yes"><act type="h" x="-14449375.243744638" y="3989720.099050841" end_time="00:31:00" /><leg mode="car" /><act type="h" x="-14441509.59784064" y="3989984.0001794267" start_time="00:31:00" end_time="08:31:00" /></plan></person><person id="10"><plan selected="yes"><act type="h" x="-14449375.243744638" y="3989720.099050841" end_time="00:48:00" /><leg mode="car" /><act type="h" x="-14441509.59784064" y="3989984.0001794267" start_time="00:48:00" end_time="08:48:00" /></plan></person><person id="11"><plan selected="yes"><act type="h" x="-14449375.243744638" y="3989720.099050841" end_time="00:28:00" /><leg mode="car" /><act type="h" x="-14441509.59784064" y="3989984.0001794267" start_time="00:28:00" end_time="08:28:00" /></plan></person><person id="12"><plan selected="yes"><act type="h" x="-14449375.243744638" y="3989720.099050841" end_time="00:30:00" /><leg mode="car" /><act type="h" x="-14441509.59784064" y="3989984.0001794267" start_time="00:30:00" end_time="08:30:00" /></plan></person><person id="13"><plan selected="yes"><act type="h" x="-14449375.243744638" y="3989720.099050841" end_time="00:41:00" /><leg mode="car" /><act type="h" x="-14441509.59784064" y="3989984.0001794267" start_time="00:41:00" end_time="08:41:00" /></plan></person><person id="14"><plan selected="yes"><act type="h" x="-14449375.243744638" y="3989720.099050841" end_time="00:24:00" /><leg mode="car" /><act type="h" x="-14441509.59784064" y="3989984.0001794267" start_time="00:24:00" end_time="08:24:00" /></plan></person><person id="15"><plan selected="yes"><act type="h" x="-14449375.243744638" y="3989720.099050841" end_time="00:50:00" /><leg mode="car" /><act type="h" x="-14441509.59784064" y="3989984.0001794267" start_time="00:50:00" end_time="08:50:00" /></plan></person><person id="16"><plan selected="yes"><act type="h" x="-14445739.301886853" y="3989910.490777338" end_time="01:13:00" /><leg mode="car" /><act type="h" x="-14441509.59784064" y="3989984.0001794267" start_time="01:13:00" end_time="09:13:00" /></plan></person><person id="17"><plan selected="yes"><act type="h" x="-14445739.301886853" y="3989910.490777338" end_time="01:06:00" /><leg mode="car" /><act type="h" x="-14449375.243744638" y="3989720.099050841" start_time="01:06:00" end_time="09:06:00" /></plan></person><person id="18"><plan selected="yes"><act type="h" x="-14441509.59784064" y="3989984.0001794267" end_time="01:31:00" /><leg mode="car" /><act type="h" x="-14445739.301886853" y="3989910.490777338" start_time="01:31:00" end_time="09:31:00" /></plan></person><person id="19"><plan selected="yes"><act type="h" x="-14441509.59784064" y="3989984.0001794267" end_time="01:01:00" /><leg mode="car" /><act type="h" x="-14449375.243744638" y="3989720.099050841" start_time="01:01:00" end_time="09:01:00" /></plan></person><person id="20"><plan selected="yes"><act type="h" x="-14449375.243744638" y="3989720.099050841" end_time="01:57:00" /><leg mode="car" /><act type="h" x="-14445739.301886853" y="3989910.490777338" start_time="01:57:00" end_time="09:57:00" /></plan></person><person id="21"><plan selected="yes"><act type="h" x="-14449375.243744638" y="3989720.099050841" end_time="01:53:00" /><leg mode="car" /><act type="h" x="-14441509.59784064" y="3989984.0001794267" start_time="01:53:00" end_time="09:53:00" /></plan></person><person id="22"><plan selected="yes"><act type="h" x="-14445739.301886853" y="3989910.490777338" end_time="02:24:00" /><leg mode="car" /><act type="h" x="-14441509.59784064" y="3989984.0001794267" start_time="02:24:00" end_time="10:24:00" /></plan></person><person id="23"><plan selected="yes"><act type="h" x="-14445739.301886853" y="3989910.490777338" end_time="02:27:00" /><leg mode="car" /><act type="h" x="-14449375.243744638" y="3989720.099050841" start_time="02:27:00" end_time="10:27:00" /></plan></person><person id="24"><plan selected="yes"><act type="h" x="-14441509.59784064" y="3989984.0001794267" end_time="02:38:00" /><leg mode="car" /><act type="h" x="-14445739.301886853" y="3989910.490777338" start_time="02:38:00" end_time="10:38:00" /></plan></person><person id="25"><plan selected="yes"><act type="h" x="-14449375.243744638" y="3989720.099050841" end_time="02:48:00" /><leg mode="car" /><act type="h" x="-14441509.59784064" y="3989984.0001794267" start_time="02:48:00" end_time="10:48:00" /></plan></person><person id="26"><plan selected="yes"><act type="h" x="-14445739.301886853" y="3989910.490777338" end_time="03:49:00" /><leg mode="car" /><act type="h" x="-14449375.243744638" y="3989720.099050841" start_time="03:49:00" end_time="11:49:00" /></plan></person><person id="27"><plan selected="yes"><act type="h" x="-14441509.59784064" y="3989984.0001794267" end_time="03:00:00" /><leg mode="car" /><act type="h" x="-14445739.301886853" y="3989910.490777338" start_time="03:00:00" end_time="11:00:00" /></plan></person><person id="28"><plan selected="yes"><act type="h" x="-14441509.59784064" y="3989984.0001794267" end_time="03:44:00" /><leg mode="car" /><act type="h" x="-14449375.243744638" y="3989720.099050841" start_time="03:44:00" end_time="11:44:00" /></plan></person><person id="29"><plan selected="yes"><act type="h" x="-14449375.243744638" y="3989720.099050841" end_time="03:28:00" /><leg mode="car" /><act type="h" x="-14445739.301886853" y="3989910.490777338" start_time="03:28:00" end_time="11:28:00" /></plan></person><person id="30"><plan selected="yes"><act type="h" x="-14445739.301886853" y="3989910.490777338" end_time="04:17:00" /><leg mode="car" /><act type="h" x="-14441509.59784064" y="3989984.0001794267" start_time="04:17:00" end_time="12:17:00" /></plan></person><person id="31"><plan selected="yes"><act type="h" x="-14445739.301886853" y="3989910.490777338" end_time="04:46:00" /><leg mode="car" /><act type="h" x="-14449375.243744638" y="3989720.099050841" start_time="04:46:00" end_time="12:46:00" /></plan></person><person id="32"><plan selected="yes"><act type="h" x="-14441509.59784064" y="3989984.0001794267" end_time="04:51:00" /><leg mode="car" /><act type="h" x="-14445739.301886853" y="3989910.490777338" start_time="04:51:00" end_time="12:51:00" /></plan></person><person id="33"><plan selected="yes"><act type="h" x="-14441509.59784064" y="3989984.0001794267" end_time="04:14:00" /><leg mode="car" /><act type="h" x="-14449375.243744638" y="3989720.099050841" start_time="04:14:00" end_time="12:14:00" /></plan></person><person id="34"><plan selected="yes"><act type="h" x="-14449375.243744638" y="3989720.099050841" end_time="04:37:00" /><leg mode="car" /><act type="h" x="-14445739.301886853" y="3989910.490777338" start_time="04:37:00" end_time="12:37:00" /></plan></person><person id="35"><plan selected="yes"><act type="h" x="-14449375.243744638" y="3989720.099050841" end_time="04:06:00" /><leg mode="car" /><act type="h" x="-14441509.59784064" y="3989984.0001794267" start_time="04:06:00" end_time="12:06:00" /></plan></person><person id="36"><plan selected="yes"><act type="h" x="-14445739.301886853" y="3989910.490777338" end_time="05:57:00" /><leg mode="car" /><act type="h" x="-14441509.59784064" y="3989984.0001794267" start_time="05:57:00" end_time="13:57:00" /></plan></person><person id="37"><plan selected="yes"><act type="h" x="-14445739.301886853" y="3989910.490777338" end_time="05:20:00" /><leg mode="car" /><act type="h" x="-14449375.243744638" y="3989720.099050841" start_time="05:20:00" end_time="13:20:00" /></plan></person><person id="38"><plan selected="yes"><act type="h" x="-14441509.59784064" y="3989984.0001794267" end_time="05:01:00" /><leg mode="car" /><act type="h" x="-14445739.301886853" y="3989910.490777338" start_time="05:01:00" end_time="13:01:00" /></plan></person><person id="39"><plan selected="yes"><act type="h" x="-14441509.59784064" y="3989984.0001794267" end_time="05:01:00" /><leg mode="car" /><act type="h" x="-14445739.301886853" y="3989910.490777338" start_time="05:01:00" end_time="13:01:00" /></plan></person><person id="40"><plan selected="yes"><act type="h" x="-14441509.59784064" y="3989984.0001794267" end_time="05:01:00" /><leg mode="car" /><act type="h" x="-14445739.301886853" y="3989910.490777338" start_time="05:01:00" end_time="13:01:00" /></plan></person><person id="41"><plan selected="yes"><act type="h" x="-14441509.59784064" y="3989984.0001794267" end_time="05:41:00" /><leg mode="car" /><act type="h" x="-14445739.301886853" y="3989910.490777338" start_time="05:41:00" end_time="13:41:00" /></plan></person><person id="42"><plan selected="yes"><act type="h" x="-14441509.59784064" y="3989984.0001794267" end_time="05:34:00" /><leg mode="car" /><act type="h" x="-14445739.301886853" y="3989910.490777338" start_time="05:34:00" end_time="13:34:00" /></plan></person><person id="43"><plan selected="yes"><act type="h" x="-14441509.59784064" y="3989984.0001794267" end_time="05:00:00" /><leg mode="car" /><act type="h" x="-14445739.301886853" y="3989910.490777338" start_time="05:00:00" end_time="13:00:00" /></plan></person><person id="44"><plan selected="yes"><act type="h" x="-14441509.59784064" y="3989984.0001794267" end_time="05:56:00" /><leg mode="car" /><act type="h" x="-14445739.301886853" y="3989910.490777338" start_time="05:56:00" end_time="13:56:00" /></plan></person><person id="45"><plan selected="yes"><act type="h" x="-14441509.59784064" y="3989984.0001794267" end_time="05:24:00" /><leg mode="car" /><act type="h" x="-14445739.301886853" y="3989910.490777338" start_time="05:24:00" end_time="13:24:00" /></plan></person><person id="46"><plan selected="yes"><act type="h" x="-14441509.59784064" y="3989984.0001794267" end_time="05:43:00" /><leg mode="car" /><act type="h" x="-14445739.301886853" y="3989910.490777338" start_time="05:43:00" end_time="13:43:00" /></plan></person><person id="47"><plan selected="yes"><act type="h" x="-14441509.59784064" y="3989984.0001794267" end_time="05:13:00" /><leg mode="car" /><act type="h" x="-14445739.301886853" y="3989910.490777338" start_time="05:13:00" end_time="13:13:00" /></plan></person><person id="48"><plan selected="yes"><act type="h" x="-14441509.59784064" y="3989984.0001794267" end_time="05:27:00" /><leg mode="car" /><act type="h" x="-14449375.243744638" y="3989720.099050841" start_time="05:27:00" end_time="13:27:00" /></plan></person><person id="49"><plan selected="yes"><act type="h" x="-14449375.243744638" y="3989720.099050841" end_time="05:46:00" /><leg mode="car" /><act type="h" x="-14445739.301886853" y="3989910.490777338" start_time="05:46:00" end_time="13:46:00" /></plan></person><person id="50"><plan selected="yes"><act type="h" x="-14449375.243744638" y="3989720.099050841" end_time="05:01:00" /><leg mode="car" /><act type="h" x="-14441509.59784064" y="3989984.0001794267" start_time="05:01:00" end_time="13:01:00" /></plan></person><person id="51"><plan selected="yes"><act type="h" x="-14445739.301886853" y="3989910.490777338" end_time="06:33:00" /><leg mode="car" /><act type="h" x="-14441509.59784064" y="3989984.0001794267" start_time="06:33:00" end_time="14:33:00" /></plan></person><person id="52"><plan selected="yes"><act type="h" x="-14445739.301886853" y="3989910.490777338" end_time="06:14:00" /><leg mode="car" /><act type="h" x="-14449375.243744638" y="3989720.099050841" start_time="06:14:00" end_time="14:14:00" /></plan></person><person id="53"><plan selected="yes"><act type="h" x="-14441509.59784064" y="3989984.0001794267" end_time="06:48:00" /><leg mode="car" /><act type="h" x="-14445739.301886853" y="3989910.490777338" start_time="06:48:00" end_time="14:48:00" /></plan></person><person id="54"><plan selected="yes"><act type="h" x="-14441509.59784064" y="3989984.0001794267" end_time="06:28:00" /><leg mode="car" /><act type="h" x="-14449375.243744638" y="3989720.099050841" start_time="06:28:00" end_time="14:28:00" /></plan></person><person id="55"><plan selected="yes"><act type="h" x="-14449375.243744638" y="3989720.099050841" end_time="06:31:00" /><leg mode="car" /><act type="h" x="-14445739.301886853" y="3989910.490777338" start_time="06:31:00" end_time="14:31:00" /></plan></person><person id="56"><plan selected="yes"><act type="h" x="-14449375.243744638" y="3989720.099050841" end_time="06:35:00" /><leg mode="car" /><act type="h" x="-14441509.59784064" y="3989984.0001794267" start_time="06:35:00" end_time="14:35:00" /></plan></person><person id="57"><plan selected="yes"><act type="h" x="-14445739.301886853" y="3989910.490777338" end_time="07:14:00" /><leg mode="car" /><act type="h" x="-14441509.59784064" y="3989984.0001794267" start_time="07:14:00" end_time="15:14:00" /></plan></person><person id="58"><plan selected="yes"><act type="h" x="-14445739.301886853" y="3989910.490777338" end_time="07:22:00" /><leg mode="car" /><act type="h" x="-14449375.243744638" y="3989720.099050841" start_time="07:22:00" end_time="15:22:00" /></plan></person><person id="59"><plan selected="yes"><act type="h" x="-14441509.59784064" y="3989984.0001794267" end_time="07:14:00" /><leg mode="car" /><act type="h" x="-14449375.243744638" y="3989720.099050841" start_time="07:14:00" end_time="15:14:00" /></plan></person><person id="60"><plan selected="yes"><act type="h" x="-14449375.243744638" y="3989720.099050841" end_time="07:43:00" /><leg mode="car" /><act type="h" x="-14445739.301886853" y="3989910.490777338" start_time="07:43:00" end_time="15:43:00" /></plan></person><person id="61"><plan selected="yes"><act type="h" x="-14449375.243744638" y="3989720.099050841" end_time="07:14:00" /><leg mode="car" /><act type="h" x="-14441509.59784064" y="3989984.0001794267" start_time="07:14:00" end_time="15:14:00" /></plan></person><person id="62"><plan selected="yes"><act type="h" x="-14445739.301886853" y="3989910.490777338" end_time="08:48:00" /><leg mode="car" /><act type="h" x="-14441509.59784064" y="3989984.0001794267" start_time="08:48:00" end_time="16:48:00" /></plan></person><person id="63"><plan selected="yes"><act type="h" x="-14441509.59784064" y="3989984.0001794267" end_time="08:29:00" /><leg mode="car" /><act type="h" x="-14445739.301886853" y="3989910.490777338" start_time="08:29:00" end_time="16:29:00" /></plan></person><person id="64"><plan selected="yes"><act type="h" x="-14441509.59784064" y="3989984.0001794267" end_time="08:18:00" /><leg mode="car" /><act type="h" x="-14449375.243744638" y="3989720.099050841" start_time="08:18:00" end_time="16:18:00" /></plan></person><person id="65"><plan selected="yes"><act type="h" x="-14449375.243744638" y="3989720.099050841" end_time="08:59:00" /><leg mode="car" /><act type="h" x="-14445739.301886853" y="3989910.490777338" start_time="08:59:00" end_time="16:59:00" /></plan></person><person id="66"><plan selected="yes"><act type="h" x="-14449375.243744638" y="3989720.099050841" end_time="08:01:00" /><leg mode="car" /><act type="h" x="-14441509.59784064" y="3989984.0001794267" start_time="08:01:00" end_time="16:01:00" /></plan></person><person id="67"><plan selected="yes"><act type="h" x="-14445739.301886853" y="3989910.490777338" end_time="09:26:00" /><leg mode="car" /><act type="h" x="-14441509.59784064" y="3989984.0001794267" start_time="09:26:00" end_time="17:26:00" /></plan></person><person id="68"><plan selected="yes"><act type="h" x="-14445739.301886853" y="3989910.490777338" end_time="09:53:00" /><leg mode="car" /><act type="h" x="-14449375.243744638" y="3989720.099050841" start_time="09:53:00" end_time="17:53:00" /></plan></person><person id="69"><plan selected="yes"><act type="h" x="-14441509.59784064" y="3989984.0001794267" end_time="09:58:00" /><leg mode="car" /><act type="h" x="-14445739.301886853" y="3989910.490777338" start_time="09:58:00" end_time="17:58:00" /></plan></person><person id="70"><plan selected="yes"><act type="h" x="-14441509.59784064" y="3989984.0001794267" end_time="09:35:00" /><leg mode="car" /><act type="h" x="-14449375.243744638" y="3989720.099050841" start_time="09:35:00" end_time="17:35:00" /></plan></person><person id="71"><plan selected="yes"><act type="h" x="-14449375.243744638" y="3989720.099050841" end_time="09:59:00" /><leg mode="car" /><act type="h" x="-14445739.301886853" y="3989910.490777338" start_time="09:59:00" end_time="17:59:00" /></plan></person><person id="72"><plan selected="yes"><act type="h" x="-14449375.243744638" y="3989720.099050841" end_time="09:41:00" /><leg mode="car" /><act type="h" x="-14441509.59784064" y="3989984.0001794267" start_time="09:41:00" end_time="17:41:00" /></plan></person><person id="73"><plan selected="yes"><act type="h" x="-14449375.243744638" y="3989720.099050841" end_time="09:06:00" /><leg mode="car" /><act type="h" x="-14441509.59784064" y="3989984.0001794267" start_time="09:06:00" end_time="17:06:00" /></plan></person><person id="74"><plan selected="yes"><act type="h" x="-14449375.243744638" y="3989720.099050841" end_time="09:11:00" /><leg mode="car" /><act type="h" x="-14441509.59784064" y="3989984.0001794267" start_time="09:11:00" end_time="17:11:00" /></plan></person><person id="75"><plan selected="yes"><act type="h" x="-14449375.243744638" y="3989720.099050841" end_time="09:40:00" /><leg mode="car" /><act type="h" x="-14441509.59784064" y="3989984.0001794267" start_time="09:40:00" end_time="17:40:00" /></plan></person><person id="76"><plan selected="yes"><act type="h" x="-14449375.243744638" y="3989720.099050841" end_time="09:46:00" /><leg mode="car" /><act type="h" x="-14441509.59784064" y="3989984.0001794267" start_time="09:46:00" end_time="17:46:00" /></plan></person><person id="77"><plan selected="yes"><act type="h" x="-14449375.243744638" y="3989720.099050841" end_time="09:55:00" /><leg mode="car" /><act type="h" x="-14441509.59784064" y="3989984.0001794267" start_time="09:55:00" end_time="17:55:00" /></plan></person><person id="78"><plan selected="yes"><act type="h" x="-14449375.243744638" y="3989720.099050841" end_time="09:18:00" /><leg mode="car" /><act type="h" x="-14441509.59784064" y="3989984.0001794267" start_time="09:18:00" end_time="17:18:00" /></plan></person><person id="79"><plan selected="yes"><act type="h" x="-14449375.243744638" y="3989720.099050841" end_time="09:07:00" /><leg mode="car" /><act type="h" x="-14441509.59784064" y="3989984.0001794267" start_time="09:07:00" end_time="17:07:00" /></plan></person><person id="80"><plan selected="yes"><act type="h" x="-14449375.243744638" y="3989720.099050841" end_time="09:47:00" /><leg mode="car" /><act type="h" x="-14441509.59784064" y="3989984.0001794267" start_time="09:47:00" end_time="17:47:00" /></plan></person><person id="81"><plan selected="yes"><act type="h" x="-14449375.243744638" y="3989720.099050841" end_time="09:21:00" /><leg mode="car" /><act type="h" x="-14441509.59784064" y="3989984.0001794267" start_time="09:21:00" end_time="17:21:00" /></plan></person><person id="82"><plan selected="yes"><act type="h" x="-14445739.301886853" y="3989910.490777338" end_time="10:57:00" /><leg mode="car" /><act type="h" x="-14441509.59784064" y="3989984.0001794267" start_time="10:57:00" end_time="18:57:00" /></plan></person><person id="83"><plan selected="yes"><act type="h" x="-14441509.59784064" y="3989984.0001794267" end_time="10:46:00" /><leg mode="car" /><act type="h" x="-14449375.243744638" y="3989720.099050841" start_time="10:46:00" end_time="18:46:00" /></plan></person><person id="84"><plan selected="yes"><act type="h" x="-14449375.243744638" y="3989720.099050841" end_time="10:45:00" /><leg mode="car" /><act type="h" x="-14445739.301886853" y="3989910.490777338" start_time="10:45:00" end_time="18:45:00" /></plan></person><person id="85"><plan selected="yes"><act type="h" x="-14449375.243744638" y="3989720.099050841" end_time="10:32:00" /><leg mode="car" /><act type="h" x="-14441509.59784064" y="3989984.0001794267" start_time="10:32:00" end_time="18:32:00" /></plan></person><person id="86"><plan selected="yes"><act type="h" x="-14445739.301886853" y="3989910.490777338" end_time="11:59:00" /><leg mode="car" /><act type="h" x="-14441509.59784064" y="3989984.0001794267" start_time="11:59:00" end_time="19:59:00" /></plan></person><person id="87"><plan selected="yes"><act type="h" x="-14445739.301886853" y="3989910.490777338" end_time="11:27:00" /><leg mode="car" /><act type="h" x="-14449375.243744638" y="3989720.099050841" start_time="11:27:00" end_time="19:27:00" /></plan></person><person id="88"><plan selected="yes"><act type="h" x="-14441509.59784064" y="3989984.0001794267" end_time="11:32:00" /><leg mode="car" /><act type="h" x="-14449375.243744638" y="3989720.099050841" start_time="11:32:00" end_time="19:32:00" /></plan></person><person id="89"><plan selected="yes"><act type="h" x="-14449375.243744638" y="3989720.099050841" end_time="11:53:00" /><leg mode="car" /><act type="h" x="-14445739.301886853" y="3989910.490777338" start_time="11:53:00" end_time="19:53:00" /></plan></person><person id="90"><plan selected="yes"><act type="h" x="-14449375.243744638" y="3989720.099050841" end_time="11:58:00" /><leg mode="car" /><act type="h" x="-14441509.59784064" y="3989984.0001794267" start_time="11:58:00" end_time="19:58:00" /></plan></person><person id="91"><plan selected="yes"><act type="h" x="-14445739.301886853" y="3989910.490777338" end_time="12:42:00" /><leg mode="car" /><act type="h" x="-14441509.59784064" y="3989984.0001794267" start_time="12:42:00" end_time="20:42:00" /></plan></person><person id="92"><plan selected="yes"><act type="h" x="-14445739.301886853" y="3989910.490777338" end_time="12:12:00" /><leg mode="car" /><act type="h" x="-14449375.243744638" y="3989720.099050841" start_time="12:12:00" end_time="20:12:00" /></plan></person><person id="93"><plan selected="yes"><act type="h" x="-14441509.59784064" y="3989984.0001794267" end_time="12:19:00" /><leg mode="car" /><act type="h" x="-14445739.301886853" y="3989910.490777338" start_time="12:19:00" end_time="20:19:00" /></plan></person><person id="94"><plan selected="yes"><act type="h" x="-14441509.59784064" y="3989984.0001794267" end_time="12:18:00" /><leg mode="car" /><act type="h" x="-14449375.243744638" y="3989720.099050841" start_time="12:18:00" end_time="20:18:00" /></plan></person><person id="95"><plan selected="yes"><act type="h" x="-14449375.243744638" y="3989720.099050841" end_time="12:37:00" /><leg mode="car" /><act type="h" x="-14445739.301886853" y="3989910.490777338" start_time="12:37:00" end_time="20:37:00" /></plan></person><person id="96"><plan selected="yes"><act type="h" x="-14449375.243744638" y="3989720.099050841" end_time="12:56:00" /><leg mode="car" /><act type="h" x="-14441509.59784064" y="3989984.0001794267" start_time="12:56:00" end_time="20:56:00" /></plan></person><person id="97"><plan selected="yes"><act type="h" x="-14445739.301886853" y="3989910.490777338" end_time="13:31:00" /><leg mode="car" /><act type="h" x="-14441509.59784064" y="3989984.0001794267" start_time="13:31:00" end_time="21:31:00" /></plan></person><person id="98"><plan selected="yes"><act type="h" x="-14445739.301886853" y="3989910.490777338" end_time="13:54:00" /><leg mode="car" /><act type="h" x="-14449375.243744638" y="3989720.099050841" start_time="13:54:00" end_time="21:54:00" /></plan></person><person id="99"><plan selected="yes"><act type="h" x="-14441509.59784064" y="3989984.0001794267" end_time="13:32:00" /><leg mode="car" /><act type="h" x="-14445739.301886853" y="3989910.490777338" start_time="13:32:00" end_time="21:32:00" /></plan></person><person id="100"><plan selected="yes"><act type="h" x="-14441509.59784064" y="3989984.0001794267" end_time="13:25:00" /><leg mode="car" /><act type="h" x="-14449375.243744638" y="3989720.099050841" start_time="13:25:00" end_time="21:25:00" /></plan></person><person id="101"><plan selected="yes"><act type="h" x="-14449375.243744638" y="3989720.099050841" end_time="13:37:00" /><leg mode="car" /><act type="h" x="-14445739.301886853" y="3989910.490777338" start_time="13:37:00" end_time="21:37:00" /></plan></person><person id="102"><plan selected="yes"><act type="h" x="-14449375.243744638" y="3989720.099050841" end_time="13:54:00" /><leg mode="car" /><act type="h" x="-14441509.59784064" y="3989984.0001794267" start_time="13:54:00" end_time="21:54:00" /></plan></person><person id="103"><plan selected="yes"><act type="h" x="-14445739.301886853" y="3989910.490777338" end_time="14:02:00" /><leg mode="car" /><act type="h" x="-14449375.243744638" y="3989720.099050841" start_time="14:02:00" end_time="22:02:00" /></plan></person><person id="104"><plan selected="yes"><act type="h" x="-14445739.301886853" y="3989910.490777338" end_time="14:30:00" /><leg mode="car" /><act type="h" x="-14449375.243744638" y="3989720.099050841" start_time="14:30:00" end_time="22:30:00" /></plan></person><person id="105"><plan selected="yes"><act type="h" x="-14445739.301886853" y="3989910.490777338" end_time="14:15:00" /><leg mode="car" /><act type="h" x="-14449375.243744638" y="3989720.099050841" start_time="14:15:00" end_time="22:15:00" /></plan></person><person id="106"><plan selected="yes"><act type="h" x="-14445739.301886853" y="3989910.490777338" end_time="14:47:00" /><leg mode="car" /><act type="h" x="-14449375.243744638" y="3989720.099050841" start_time="14:47:00" end_time="22:47:00" /></plan></person><person id="107"><plan selected="yes"><act type="h" x="-14445739.301886853" y="3989910.490777338" end_time="14:51:00" /><leg mode="car" /><act type="h" x="-14449375.243744638" y="3989720.099050841" start_time="14:51:00" end_time="22:51:00" /></plan></person><person id="108"><plan selected="yes"><act type="h" x="-14445739.301886853" y="3989910.490777338" end_time="14:25:00" /><leg mode="car" /><act type="h" x="-14449375.243744638" y="3989720.099050841" start_time="14:25:00" end_time="22:25:00" /></plan></person><person id="109"><plan selected="yes"><act type="h" x="-14445739.301886853" y="3989910.490777338" end_time="14:26:00" /><leg mode="car" /><act type="h" x="-14449375.243744638" y="3989720.099050841" start_time="14:26:00" end_time="22:26:00" /></plan></person><person id="110"><plan selected="yes"><act type="h" x="-14445739.301886853" y="3989910.490777338" end_time="14:42:00" /><leg mode="car" /><act type="h" x="-14449375.243744638" y="3989720.099050841" start_time="14:42:00" end_time="22:42:00" /></plan></person><person id="111"><plan selected="yes"><act type="h" x="-14445739.301886853" y="3989910.490777338" end_time="14:11:00" /><leg mode="car" /><act type="h" x="-14449375.243744638" y="3989720.099050841" start_time="14:11:00" end_time="22:11:00" /></plan></person><person id="112"><plan selected="yes"><act type="h" x="-14445739.301886853" y="3989910.490777338" end_time="14:23:00" /><leg mode="car" /><act type="h" x="-14449375.243744638" y="3989720.099050841" start_time="14:23:00" end_time="22:23:00" /></plan></person><person id="113"><plan selected="yes"><act type="h" x="-14441509.59784064" y="3989984.0001794267" end_time="14:35:00" /><leg mode="car" /><act type="h" x="-14445739.301886853" y="3989910.490777338" start_time="14:35:00" end_time="22:35:00" /></plan></person><person id="114"><plan selected="yes"><act type="h" x="-14441509.59784064" y="3989984.0001794267" end_time="14:56:00" /><leg mode="car" /><act type="h" x="-14449375.243744638" y="3989720.099050841" start_time="14:56:00" end_time="22:56:00" /></plan></person><person id="115"><plan selected="yes"><act type="h" x="-14449375.243744638" y="3989720.099050841" end_time="14:44:00" /><leg mode="car" /><act type="h" x="-14445739.301886853" y="3989910.490777338" start_time="14:44:00" end_time="22:44:00" /></plan></person><person id="116"><plan selected="yes"><act type="h" x="-14449375.243744638" y="3989720.099050841" end_time="14:49:00" /><leg mode="car" /><act type="h" x="-14441509.59784064" y="3989984.0001794267" start_time="14:49:00" end_time="22:49:00" /></plan></person><person id="117"><plan selected="yes"><act type="h" x="-144493