<?xml version="1.0" ?>
<!DOCTYPE plans SYSTEM "http://www.matsim.org/files/dtd/plans_v4.dtd">
<plans xml:lang="de-CH"><person id="1"><plan selected="yes"><act type="h" x="-14455986.07592195" y="3985139.2586261206" end_time="01:00:00" /><leg mode="car" /><act type="h" x="-14411776.341194231" y="3943296.4855503156" start_time="01:00:00" end_time="09:00:00" /></plan></person><person id="2"><plan selected="yes"><act type="h" x="-14411943.68622111" y="3951453.071640504" end_time="01:00:00" /><leg mode="car" /><act type="h" x="-14392468.005752645" y="4011064.5264011435" start_time="01:00:00" end_time="09:00:00" /></plan></person><person id="3"><plan selected="yes"><act type="h" x="-14403828.911002498" y="3955803.2219640273" end_time="01:00:00" /><leg mode="car" /><act type="h" x="-14451512.020330373" y="4018438.3139388557" start_time="01:00:00" end_time="09:00:00" /></plan></person><person id="4"><plan selected="yes"><act type="h" x="-14451155.804770764" y="3989945.693272423" end_time="01:00:00" /><leg mode="car" /><act type="h" x="-14411786.384701481" y="3943218.4702090924" start_time="01:00:00" end_time="09:00:00" /></plan></person><person id="5"><plan selected="yes"><act type="h" x="-14442325.787206527" y="4012399.1848912262" end_time="01:00:00" /><leg mode="car" /><act type="h" x="-14430585.325524837" y="3956633.4677504296" start_time="01:00:00" end_time="09:00:00" /></plan></person><person id="6"><plan selected="yes"><act type="h" x="-14459687.486208249" y="4016797.6443441478" end_time="01:00:00" /><leg mode="car" /><act type="h" x="-14448887.724737847" y="3986228.8481588494" start_time="01:00:00" end_time="09:00:00" /></plan></person><person id="7"><plan selected="yes"><act type="h" x="-14439793.641466837" y="4004140.8090961706" end_time="01:00:00" /><leg mode="car" /><act type="h" x="-14447373.257362848" y="3977945.8427493162" start_time="01:00:00" end_time="09:00:00" /></plan></person><person id="8"><plan selected="yes"><act type="h" x="-14440255.0787474" y="3999623.1408683034" end_time="01:00:00" /><leg mode="car" /><act type="h" x="-14455952.829662535" y="4034071.0210373104" start_time="01:00:00" end_time="09:00:00" /></plan></person><person id="9"><plan selected="yes"><act type="h" x="-14447277.441275293" y="3973922.255990268" end_time="01:00:00" /><leg mode="car" /><act type="h" x="-14439639.60397031" y="3977676.970369889" start_time="01:00:00" end_time="09:00:00" /></plan></person><person id="10"><plan selected="yes"><act type="h" x="-14445075.31447213" y="3987680.6542164395" end_time="01:00:00" /><leg mode="car" /><act type="h" x="-14409064.19449968" y="3952983.377128615" start_time="01:00:00" end_time="09:00:00" /></plan></person><person id="11"><plan selected="yes"><act type="h" x="-14442788.477823166" y="4019297.825683056" end_time="01:00:00" /><leg mode="car" /><act type="h" x="-14445041.628600568" y="3987695.7957270816" start_time="01:00:00" end_time="09:00:00" /></plan></person><person id="12"><plan selected="yes"><act type="h" x="-14444846.621110527" y="3990028.2555637914" end_time="01:00:00" /><leg mode="car" /><act type="h" x="-14453875.534853198" y="4025971.264745725" start_time="01:00:00" end_time="09:00:00" /></plan></person><person id="13"><plan selected="yes"><act type="h" x="-14406794.883199707" y="4018469.3681701547" end_time="01:00:00" /><leg mode="car" /><act type="h" x="-14422061.978666332" y="3953115.6723965323" start_time="01:00:00" end_time="09:00:00" /></plan></person><person id="14"><plan selected="yes"><act type="h" x="-14460511.146272562" y="4054558.3411989273" end_time="01:00:00" /><leg mode="car" /><act type="h" x="-14445410.48629733" y="3986409.6948223803" start_time="01:00:00" end_time="09:00:00" /></plan></person><person id="15"><plan selected="yes"><act type="h" x="-14419171.223820567" y="3949618.437929987" end_time="01:00:00" /><leg mode="car" /><act type="h" x="-14470305.079556596" y="4078474.9643812776" start_time="01:00:00" end_time="09:00:00" /></plan></person><person id="16"><plan selected="yes"><act type="h" x="-14452567.140937237" y="3973855.5604891265" end_time="01:00:00" /><leg mode="car" /><act type="h" x="-14463877.667895984" y="3984400.438384282" start_time="01:00:00" end_time="09:00:00" /></plan></person><person id="17"><plan selected="yes"><act type="h" x="-14448762.970875436" y="4056712.320634912" end_time="01:00:00" /><leg mode="car" /><act type="h" x="-14399634.280061133" y="3988661.996362771" start_time="01:00:00" end_time="09:00:00" /></plan></person><person id="18"><plan selected="yes"><act type="h" x="-14445044.027814021" y="4008881.83175006" end_time="01:00:00" /><leg mode="car" /><act type="h" x="-14448910.739081034" y="3989463.2306756983" start_time="01:00:00" end_time="09:00:00" /></plan></person><person id="19"><plan selected="yes"><act type="h" x="-14474035.546330594" y="3984384.0786218406" end_time="01:00:00" /><leg mode="car" /><act type="h" x="-14458228.94580365" y="4015814.5727628856" start_time="01:00:00" end_time="09:00:00" /></plan></person><person id="20"><plan selected="yes"><act type="h" x="-14469531.56425577" y="4069048.5003333096" end_time="01:00:00" /><leg mode="car" /><act type="h" x="-14453739.458331797" y="4054238.682347933" start_time="01:00:00" end_time="09:00:00" /></plan></person><person id="21"><plan selected="yes"><act type="h" x="-14419077.53344153" y="3948400.2596639995" end_time="01:00:00" /><leg mode="car" /><act type="h" x="-14422370.567870248" y="4018482.042118461" start_time="01:00:00" end_time="09:00:00" /></plan></person><person id="22"><plan selected="yes"><act type="h" x="-14436838.234450005" y="4023579.3876600284" end_time="01:00:00" /><leg mode="car" /><act type="h" x="-14390574.75054189" y="3924146.833800906" start_time="01:00:00" end_time="09:00:00" /></plan></person><person id="23"><plan selected="yes"><act type="h" x="-14451483.803806337" y="4018255.593147458" end_time="01:00:00" /><leg mode="car" /><act type="h" x="-14454810.005483923" y="4021137.522858041" start_time="01:00:00" end_time="09:00:00" /></plan></person><person id="24"><plan selected="yes"><act type="h" x="-14438188.57079304" y="3978415.9921022304" end_time="01:00:00" /><leg mode="car" /><act type="h" x="-14445095.226040881" y="3986688.454173098" start_time="01:00:00" end_time="09:00:00" /></plan></person><person id="25"><plan selected="yes"><act type="h" x="-14445565.526080314" y="4010279.891887204" end_time="01:00:00" /><leg mode="car" /><act type="h" x="-14411300.057320092" y="3952093.5249949023" start_time="01:00:00" end_time="09:00:00" /></plan></person><person id="26"><plan selected="yes"><act type="h" x="-14454084.154440885" y="3985813.11940995" end_time="01:00:00" /><leg mode="car" /><act type="h" x="-14402499.073593332" y="4017898.983875185" start_time="01:00:00" end_time="09:00:00" /></plan></person><person id="27"><plan selected="yes"><act type="h" x="-14411872.014595788" y="3945175.588350725" end_time="01:00:00" /><leg mode="car" /><act type="h" x="-14441284.474172799" y="4009964.8008030453" start_time="01:00:00" end_time="09:00:00" /></plan></person><person id="28"><plan selected="yes"><act type="h" x="-14369380.475910535" y="3952581.4631154803" end_time="01:00:00" /><leg mode="car" /><act type="h" x="-14439556.727293152" y="3961950.9717213255" start_time="01:00:00" end_time="09:00:00" /></plan></person><person id="29"><plan selected="yes"><act type="h" x="-14419414.690802336" y="3951667.6121841366" end_time="01:00:00" /><leg mode="car" /><act type="h" x="-14448879.103871422" y="3986088.3909798004" start_time="01:00:00" end_time="09:00:00" /></plan></person><person id="30"><plan selected="yes"><act type="h" x="-14441779.749725806" y="3997605.234244667" end_time="01:00:00" /><leg mode="car" /><act type="h" x="-14442549.275934003" y="3996167.8923803233" start_time="01:00:00" end_time="09:00:00" /></plan></person><person id="31"><plan selected="yes"><act type="h" x="-14411576.34212337" y="3941889.2803450706" end_time="01:00:00" /><leg mode="car" /><act type="h" x="-14447851.936812177" y="3989661.811865748" start_time="01:00:00" end_time="09:00:00" /></plan></person><person id="32"><plan selected="yes"><act type="h" x="-14453370.529941734" y="3985499.209542314" end_time="01:00:00" /><leg mode="car" /><act type="h" x="-14388655.172838552" y="4006567.64221389" start_time="01:00:00" end_time="09:00:00" /></plan></person><person id="33"><plan selected="yes"><act type="h" x="-14439886.840976827" y="4002180.535970577" end_time="01:00:00" /><leg mode="car" /><act type="h" x="-14440782.192973368" y="4007578.0205967994" start_time="01:00:00" end_time="09:00:00" /></plan></person><person id="34"><plan selected="yes"><act type="h" x="-14451492.95251778" y="4018392.405724782" end_time="01:00:00" /><leg mode="car" /><act type="h" x="-14440169.47320403" y="3986684.6553803547" start_time="01:00:00" end_time="09:00:00" /></plan></person><person id="35"><plan selected="yes"><act type="h" x="-14390186.050945701" y="3967180.863984354" end_time="01:00:00" /><leg mode="car" /><act type="h" x="-14439040.522112893" y="3974340.2970357803" start_time="01:00:00" end_time="09:00:00" /></plan></person><person id="36"><plan selected="yes"><act type="h" x="-14419248.626551418" y="3950972.525275579" end_time="01:00:00" /><leg mode="car" /><act type="h" x="-14445482.761264447" y="3994730.400902854" start_time="01:00:00" end_time="09:00:00" /></plan></person><person id="37"><plan selected="yes"><act type="h" x="-14447416.32825043" y="3978033.5702925455" end_time="01:00:00" /><leg mode="car" /><act type="h" x="-14448837.429714605" y="3989442.5014449884" start_time="01:00:00" end_time="09:00:00" /></plan></person><person id="38"><plan selected="yes"><act type="h" x="-14454696.596984109" y="4025339.903492935" end_time="01:00:00" /><leg mode="car" /><act type="h" x="-14448780.01369136" y="4056743.432403662" start_time="01:00:00" end_time="09:00:00" /></plan></person><person id="39"><plan selected="yes"><act type="h" x="-14447937.341461917" y="4015527.660714831" end_time="01:00:00" /><leg mode="car" /><act type="h" x="-14453817.321761904" y="4026578.812005331" start_time="01:00:00" end_time="09:00:00" /></plan></person><person id="40"><plan selected="yes"><act type="h" x="-14444987.23877952" y="3980565.8590872595" end_time="01:00:00" /><leg mode="car" /><act type="h" x="-14473714.864560103" y="3984358.0351525485" start_time="01:00:00" end_time="09:00:00" /></plan></person><person id="41"><plan selected="yes"><act type="h" x="-14418417.399025746" y="3947680.9430704787" end_time="01:00:00" /><leg mode="car" /><act type="h" x="-14464299.797660738" y="3984447.555968461" start_time="01:00:00" end_time="09:00:00" /></plan></person><person id="42"><plan selected="yes"><act type="h" x="-14450087.138036447" y="4063546.2514074654" end_time="01:00:00" /><leg mode="car" /><act type="h" x="-14411873.218430016" y="3944934.8647785536" start_time="01:00:00" end_time="09:00:00" /></plan></person><person id="43"><plan selected="yes"><act type="h" x="-14411837.185086204" y="3941756.5277223983" end_time="01:00:00" /><leg mode="car" /><act type="h" x="-14475370.92281046" y="4074590.331576719" start_time="01:00:00" end_time="09:00:00" /></plan></person><person id="44"><plan selected="yes"><act type="h" x="-14442752.102130951" y="4016782.0291539812" end_time="01:00:00" /><leg mode="car" /><act type="h" x="-14444616.368930388" y="3999252.6763099716" start_time="01:00:00" end_time="09:00:00" /></plan></person><person id="45"><plan selected="yes"><act type="h" x="-14430647.720743116" y="3956637.617214455" end_time="01:00:00" /><leg mode="car" /><act type="h" x="-14439836.808015106" y="3977027.241900593" start_time="01:00:00" end_time="09:00:00" /></plan></person><person id="46"><plan selected="yes"><act type="h" x="-14397438.052032793" y="3989688.9899126543" end_time="01:00:00" /><leg mode="car" /><act type="h" x="-14434700.819344744" y="4023612.956679956" start_time="01:00:00" end_time="09:00:00" /></plan></person><person id="47"><plan selected="yes"><act type="h" x="-14459958.84999745" y="4049499.1301482883" end_time="01:00:00" /><leg mode="car" /><act type="h" x="-14410209.64751986" y="3937914.5170874964" start_time="01:00:00" end_time="09:00:00" /></plan></person><person id="48"><plan selected="yes"><act type="h" x="-14439739.950184874" y="3977374.755790723" end_time="01:00:00" /><leg mode="car" /><act type="h" x="-14459859.433912165" y="4052906.823520715" start_time="01:00:00" end_time="09:00:00" /></plan></person><person id="49"><plan selected="yes"><act type="h" x="-14448139.669724261" y="3984281.564674025" end_time="01:00:00" /><leg mode="car" /><act type="h" x="-14446182.717483854" y="3986298.73794905" start_time="01:00:00" end_time="09:00:00" /></plan></person><person id="50"><plan selected="yes"><act type="h" x="-14459034.06482485" y="4015951.9881518944" end_time="01:00:00" /><leg mode="car" /><act type="h" x="-14412084.364498312" y="3948820.724836113" start_time="01:00:00" end_time="09:00:00" /></plan></person><person id="51"><plan selected="yes"><act type="h" x="-14403485.190889023" y="4018218.7878443925" end_time="01:00:00" /><leg mode="car" /><act type="h" x="-14453167.033845019" y="3983158.1212913645" start_time="01:00:00" end_time="09:00:00" /></plan></person><person id="52"><plan selected="yes"><act type="h" x="-14390288.808330743" y="3977818.5520507824" end_time="01:00:00" /><leg mode="car" /><act type="h" x="-14472521.683776591" y="4070030.4749996355" start_time="01:00:00" end_time="09:00:00" /></plan></person><person id="53"><plan selected="yes"><act type="h" x="-14445021.532500101" y="3995787.173469345" end_time="01:00:00" /><leg mode="car" /><act type="h" x="-14387538.634429846" y="3924362.4220431163" start_time="01:00:00" end_time="09:00:00" /></plan></person><person id="54"><plan selected="yes"><act type="h" x="-14449121.339174228" y="3988729.8471415653" end_time="01:00:00" /><leg mode="car" /><act type="h" x="-14469071.326589996" y="4068671.9846213292" start_time="01:00:00" end_time="09:00:00" /></plan></person><person id="55"><plan selected="yes"><act type="h" x="-14445342.563600978" y="4010107.9962172452" end_time="01:00:00" /><leg mode="car" /><act type="h" x="-14449796.408811428" y="4017022.862286864" start_time="01:00:00" end_time="09:00:00" /></plan></person><person id="56"><plan selected="yes"><act type="h" x="-14455168.99353162" y="4023707.8335681907" end_time="01:00:00" /><leg mode="car" /><act type="h" x="-14444409.842257401" y="4001003.9938055063" start_time="01:00:00" end_time="09:00:00" /></plan></person><person id="57"><plan selected="yes"><act type="h" x="-14430820.711076" y="3956778.259224236" end_time="01:00:00" /><leg mode="car" /><act type="h" x="-14441284.474172799" y="4009964.8008030453" start_time="01:00:00" end_time="09:00:00" /></plan></person><person id="58"><plan selected="yes"><act type="h" x="-14393065.849492209" y="3924898.277029081" end_time="01:00:00" /><leg mode="car" /><act type="h" x="-14401540.420313552" y="4017060.676932533" start_time="01:00:00" end_time="09:00:00" /></plan></person><person id="59"><plan selected="yes"><act type="h" x="-14442767.84167934" y="4017967.1404650025" end_time="01:00:00" /><leg mode="car" /><act type="h" x="-14450920.904610217" y="4018051.0288517294" start_time="01:00:00" end_time="09:00:00" /></plan></person><person id="60"><plan selected="yes"><act type="h" x="-14475252.257682627" y="4070508.5760159316" end_time="01:00:00" /><leg mode="car" /><act type="h" x="-14435438.669968517" y="3978415.9414687348" start_time="01:00:00" end_time="09:00:00" /></plan></person><person id="61"><plan selected="yes"><act type="h" x="-14445444.314812617" y="3989438.8497128016" end_time="01:00:00" /><leg mode="car" /><act type="h" x="-14451483.433372697" y="4018252.869575576" start_time="01:00:00" end_time="09:00:00" /></plan></person><person id="62"><plan selected="yes"><act type="h" x="-14442488.846533809" y="4014447.726687831" end_time="02:00:00" /><leg mode="car" /><act type="h" x="-14438579.304137737" y="3967005.8643300654" start_time="02:00:00" end_time="10:00:00" /></plan></person><person id="63"><plan selected="yes"><act type="h" x="-14440367.332155926" y="3988387.5314050373" end_time="02:00:00" /><leg mode="car" /><act type="h" x="-14442004.985610468" y="3997212.8374431506" start_time="02:00:00" end_time="10:00:00" /></plan></person><person id="64"><plan selected="yes"><act type="h" x="-14406690.6116965" y="3954254.9742601546" end_time="02:00:00" /><leg mode="car" /><act type="h" x="-14447738.049741374" y="3969670.0353350616" start_time="02:00:00" end_time="10:00:00" /></plan></person><person id="65"><plan selected="yes"><act type="h" x="-14440806.56063662" y="4007562.580305939" end_time="02:00:00" /><leg mode="car" /><act type="h" x="-14430093.725259414" y="3986190.086770657" start_time="02:00:00" end_time="10:00:00" /></plan></person><person id="66"><plan selected="yes"><act type="h" x="-14386797.809699342" y="3998744.1662900643" end_time="02:00:00" /><leg mode="car" /><act type="h" x="-14454568.370791147" y="3979694.257825891" start_time="02:00:00" end_time="10:00:00" /></plan></person><person id="67"><plan selected="yes"><act type="h" x="-14449102.473466378" y="3989413.6823643753" end_time="02:00:00" /><leg mode="car" /><act type="h" x="-14453831.316264777" y="4026637.4161024764" start_time="02:00:00" end_time="10:00:00" /></plan></person><person id="68"><plan selected="yes"><act type="h" x="-14461012.190381022" y="4080022.057318564" end_time="02:00:00" /><leg mode="car" /><act type="h" x="-14460164.775051123" y="4017187.271843074" start_time="02:00:00" end_time="10:00:00" /></plan></person><person id="69"><plan selected="yes"><act type="h" x="-14418883.649984837" y="3989922.8491481566" end_time="02:00:00" /><leg mode="car" /><act type="h" x="-14440010.438198354" y="3985944.563156955" start_time="02:00:00" end_time="10:00:00" /></plan></person><person id="70"><plan selected="yes"><act type="h" x="-14464432.05742503" y="3984456.749272435" end_time="02:00:00" /><leg mode="car" /><act type="h" x="-14458542.279840706" y="4015866.25735113" start_time="02:00:00" end_time="10:00:00" /></plan></person><person id="71"><plan selected="yes"><act type="h" x="-14459924.04240324" y="4052785.465634759" end_time="02:00:00" /><leg mode="car" /><act type="h" x="-14445484.67929656" y="3994879.2266964894" start_time="02:00:00" end_time="10:00:00" /></plan></person><person id="72"><plan selected="yes"><act type="h" x="-14466907.677821644" y="3984783.3669144977" end_time="02:00:00" /><leg mode="car" /><act type="h" x="-14444798.553934246" y="3989998.044440495" start_time="02:00:00" end_time="10:00:00" /></plan></person><person id="73"><plan selected="yes"><act type="h" x="-14440494.84670961" y="3988405.997975875" end_time="02:00:00" /><leg mode="car" /><act type="h" x="-14445199.741547065" y="4010008.57632546" start_time="02:00:00" end_time="10:00:00" /></plan></person><person id="74"><plan selected="yes"><act type="h" x="-14411762.090707699" y="3942705.0316119418" end_time="02:00:00" /><leg mode="car" /><act type="h" x="-14453599.138832306" y="4054334.7806492206" start_time="02:00:00" end_time="10:00:00" /></plan></person><person id="75"><plan selected="yes"><act type="h" x="-14439687.02690253" y="3982353.8106071204" end_time="02:00:00" /><leg mode="car" /><act type="h" x="-14400205.389949754" y="3959608.171847597" start_time="02:00:00" end_time="10:00:00" /></plan></person><person id="76"><plan selected="yes"><act type="h" x="-14397427.642875804" y="3983551.642696831" end_time="02:00:00" /><leg mode="car" /><act type="h" x="-14447498.067671096" y="3966945.672389447" start_time="02:00:00" end_time="10:00:00" /></plan></person><person id="77"><plan selected="yes"><act type="h" x="-14411960.618982114" y="3947044.0219030604" end_time="02:00:00" /><leg mode="car" /><act type="h" x="-14440129.39021032" y="3985970.3084833105" start_time="02:00:00" end_time="10:00:00" /></plan></person><person id="78"><plan selected="yes"><act type="h" x="-14397124.24549969" y="3961094.4106282876" end_time="02:00:00" /><leg mode="car" /><act type="h" x="-14469157.156500373" y="4068749.110192574" start_time="02:00:00" end_time="10:00:00" /></plan></person><person id="79"><plan selected="yes"><act type="h" x="-14448104.428102046" y="3980006.2701315936" end_time="02:00:00" /><leg mode="car" /><act type="h" x="-14458760.28681937" y="4016021.8352036905" start_time="02:00:00" end_time="10:00:00" /></plan></person><person id="80"><plan selected="yes"><act type="h" x="-14382212.278394941" y="3924321.532925013" end_time="02:00:00" /><leg mode="car" /><act type="h" x="-14442398.076377075" y="3986414.6662834124" start_time="02:00:00" end_time="10:00:00" /></plan></person><person id="81"><plan selected="yes"><act type="h" x="-14442144.286862364" y="3994789.222063286" end_time="02:00:00" /><leg mode="car" /><act type="h" x="-14387147.09030947" y="3972660.025344358" start_time="02:00:00" end_time="10:00:00" /></plan></person><person id="82"><plan selected="yes"><act type="h" x="-14440276.359216241" y="3986327.747393259" end_time="02:00:00" /><leg mode="car" /><act type="h" x="-14355939.198609237" y="3947340.291175229" start_time="02:00:00" end_time="10:00:00" /></plan></person><person id="83"><plan selected="yes"><act type="h" x="-14368442.191756751" y="3921658.5227090516" end_time="02:00:00" /><leg mode="car" /><act type="h" x="-14410242.486343374" y="3937794.153388933" start_time="02:00:00" end_time="10:00:00" /></plan></person><person id="84"><plan selected="yes"><act type="h" x="-14423407.988918982" y="3988648.8798223645" end_time="02:00:00" /><leg mode="car" /><act type="h" x="-14422383.086193157" y="4018470.0636657462" start_time="02:00:00" end_time="10:00:00" /></plan></person><person id="85"><plan selected="yes"><act type="h" x="-14447169.690455034" y="3972664.696143556" end_time="02:00:00" /><leg mode="car" /><act type="h" x="-14401708.876396343" y="3957443.945904387" start_time="02:00:00" end_time="10:00:00" /></plan></person><person id="86"><plan selected="yes"><act type="h" x="-14445424.54137639" y="3989898.9563470483" end_time="02:00:00" /><leg mode="car" /><act type="h" x="-14455959.475361736" y="4033998.308943721" start_time="02:00:00" end_time="10:00:00" /></plan></person><person id="87"><plan selected="yes"><act type="h" x="-14441438.7207382" y="3989905.2801986095" end_time="02:00:00" /><leg mode="car" /><act type="h" x="-14438638.903697334" y="3986048.2511626882" start_time="02:00:00" end_time="10:00:00" /></plan></person><person id="88"><plan selected="yes"><act type="h" x="-14459912.931090536" y="3984806.6112169465" end_time="02:00:00" /><leg mode="car" /><act type="h" x="-14419259.820929838" y="3949569.81013463" start_time="02:00:00" end_time="10:00:00" /></plan></person><person id="89"><plan selected="yes"><act type="h" x="-14459730.228434341" y="4052720.563051994" end_time="02:00:00" /><leg mode="car" /><act type="h" x="-14433155.49223172" y="3978642.526948445" start_time="02:00:00" end_time="10:00:00" /></plan></person><person id="90"><plan selected="yes"><act type="h" x="-14361943.253285982" y="3920178.6638045674" end_time="02:00:00" /><leg mode="car" /><act type="h" x="-14473969.238352444" y="4070539.0056047877" start_time="02:00:00" end_time="10:00:00" /></plan></person><person id="91"><plan selected="yes"><act type="h" x="-14448821.055489454" y="3986253.0416896804" end_time="02:00:00" /><leg mode="car" /><act type="h" x="-14452394.527382484" y="4076296.503689818" start_time="02:00:00" end_time="10:00:00" /></plan></person><person id="92"><plan selected="yes"><act type="h" x="-14396822.748319192" y="4014251.085455369" end_time="02:00:00" /><leg mode="car" /><act type="h" x="-14436090.756217675" y="3986318.776689468" start_time="02:00:00" end_time="10:00:00" /></plan></person><person id="93"><plan selected="yes"><act type="h" x="-14393552.233083671" y="3926017.8786946475" end_time="02:00:00" /><leg mode="car" /><act type="h" x="-14452741.833872957" y="3974620.622536168" start_time="02:00:00" end_time="10:00:00" /></plan></person><person id="94"><plan selected="yes"><act type="h" x="-14440078.43546947" y="3986039.182351665" end_time="02:00:00" /><leg mode="car" /><act type="h" x="-14439948.534471463" y="3986057.7134201513" start_time="02:00:00" end_time="10:00:00" /></plan></person><person id="95"><plan selected="yes"><act type="h" x="-14439707.421707964" y="3978116.5029240367" end_time="02:00:00" /><leg mode="car" /><act type="h" x="-14450570.812450686" y="4054275.1641963213" start_time="02:00:00" end_time="10:00:00" /></plan></person><person id="96"><plan selected="yes"><act type="h" x="-14447476.3229018" y="3978818.818665497" end_time="02:00:00" /><leg mode="car" /><act type="h" x="-14476957.51659575" y="3982834.0928698154" start_time="02:00:00" end_time="10:00:00" /></plan></person><person id="97"><plan selected="yes"><act type="h" x="-14451503.97479694" y="4063743.907854473" end_time="02:00:00" /><leg mode="car" /><act type="h" x="-14447087.618272474" y="3989734.6285611554" start_time="02:00:00" end_time="10:00:00" /></plan></person><person id="98"><plan selected="yes"><act type="h" x="-14443508.186603813" y="4022875.626101122" end_time="02:00:00" /><leg mode="car" /><act type="h" x="-14475635.855725408" y="4070800.369267467" start_time="02:00:00" end_time="10:00:00" /></plan></person><person id="99"><plan selected="yes"><act type="h" x="-14447325.764501793" y="3977541.4416425033" end_time="02:00:00" /><leg mode="car" /><act type="h" x="-14442649.727508578" y="4016466.1633685376" start_time="02:00:00" end_time="10:00:00" /></plan></person><person id="100"><plan selected="yes"><act type="h" x="-14357660.626364237" y="3920464.7251883363" end_time="02:00:00" /><leg mode="car" /><act type="h" x="-14417130.199104898" y="3951047.092639003" start_time="02:00:00" end_time="10:00:00" /></plan></person><person id="101"><plan selected="yes"><act type="h" x="-14440628.40392537" y="4023222.353048611" end_time="02:00:00" /><leg mode="car" /><act type="h" x="-14430912.324397488" y="3956920.9566191374" start_time="02:00:00" end_time="10:00:00" /></plan></person><person id="102"><plan selected="yes"><act type="h" x="-14460422.948803736" y="4017418.6598644042" end_time="02:00:00" /><leg mode="car" /><act type="h" x="-14415165.712674709" y="3944645.0016885935" start_time="02:00:00" end_time="10:00:00" /></plan></person><person id="103"><plan selected="yes"><act type="h" x="-14440038.770624684" y="3978630.1550581725" end_time="03:00:00" /><leg mode="car" /><act type="h" x="-14390256.580109611" y="3977873.3344215346" start_time="03:00:00" end_time="11:00:00" /></plan></person><person id="104"><plan selected="yes"><act type="h" x="-14451967.976143999" y="4028555.8445590762" end_time="03:00:00" /><leg mode="car" /><act type="h" x="-14455538.621820673" y="4033030.825865034" start_time="03:00:00" end_time="11:00:00" /></plan></person><person id="105"><plan selected="yes"><act type="h" x="-14438862.766310887" y="3971948.905500841" end_time="03:00:00" /><leg mode="car" /><act type="h" x="-14441233.785414385" y="4009886.072935204" start_time="03:00:00" end_time="11:00:00" /></plan></person><person id="106"><plan selected="yes"><act type="h" x="-14419320.026583832" y="3950889.964350409" end_time="03:00:00" /><leg mode="car" /><act type="h" x="-14440861.399690459" y="4009305.722969377" start_time="03:00:00" end_time="11:00:00" /></plan></person><person id="107"><plan selected="yes"><act type="h" x="-14480370.665511392" y="3976208.565577274" end_time="03:00:00" /><leg mode="car" /><act type="h" x="-14418948.071683334" y="3948162.9008468236" start_time="03:00:00" end_time="11:00:00" /></plan></person><person id="108"><plan selected="yes"><act type="h" x="-14401373.9969104" y="3958050.4682442094" end_time="03:00:00" /><leg mode="car" /><act type="h" x="-14456684.774904013" y="3989743.1878518607" start_time="03:00:00" end_time="11:00:00" /></plan></person><person id="109"><plan selected="yes"><act type="h" x="-14442436.539601525" y="4012197.153802787" end_time="03:00:00" /><leg mode="car" /><act type="h" x="-14446124.849650031" y="3986323.3969400995" start_time="03:00:00" end_time="11:00:00" /></plan></person><person id="110"><plan selected="yes"><act type="h" x="-14445280.854790036" y="3989703.01008905" end_time="03:00:00" /><leg mode="car" /><act type="h" x="-14463584.626230024" y="3984420.409832432" start_time="03:00:00" end_time="11:00:00" /></plan></person><person id="111"><plan selected="yes"><act type="h" x="-14440604.41754463" y="4007530.007005425" end_time="03:00:00" /><leg mode="car" /><act type="h" x="-14439898.385698376" y="3976814.312018383" start_time="03:00:00" end_time="11:00:00" /></plan></person><person id="112"><plan selected="yes"><act type="h" x="-14448965.492166433" y="3986061.532123107" end_time="03:00:00" /><leg mode="car" /><act type="h" x="-14469477.976891642" y="4068991.0827425015" start_time="03:00:00" end_time="11:00:00" /></plan></person><person id="113"><plan selected="yes"><act type="h" x="-14447600.845128987" y="3968074.510068116" end_time="03:00:00" /><leg mode="car" /><act type="h" x="-14429873.165586902" y="3986182.191739245" start_time="03:00:00" end_time="11:00:00" /></plan></person><person id="114"><plan selected="yes"><act type="h" x="-14394596.65788231" y="3993850.9849246414" end_time="03:00:00" /><leg mode="car" /><act type="h" x="-14445757.831978157" y="3989673.6645270204" start_time="03:00:00" end_time="11:00:00" /></plan></person><person id="115"><plan selected="yes"><act type="h" x="-14444953.771306466" y="3989951.3440039805" end_time="03:00:00" /><leg mode="car" /><act type="h" x="-14440339.534079978" y="3985939.1703816387" start_time="03:00:00" end_time="11:00:00" /></plan></person><person id="116"><plan selected="yes"><act type="h" x="-14389222.674568594" y="3975071.661588227" end_time="03:00:00" /><leg mode="car" /><act type="h" x="-14447438.336902637" y="3978430.597133953" start_time="03:00:00" end_time="11:00:00" /></plan></person