<?xml version="1.0" encoding="UTF-8"?>
<!DOCTYPE network SYSTEM "http://www.matsim.org/files/dtd/network_v2.dtd">
<network>

<!-- ====================================================================== -->

	<nodes>
		<node id="10002192851" x="-1.443691940418536E7" y="3986161.341669188" >
		</node>
		<node id="10008038221" x="-1.43919484626477E7" y="3981505.4219221356" >
		</node>
		<node id="10008038222" x="-1.439198360626781E7" y="3981557.876594163" >
		</node>
		<node id="10008038223" x="-1.4392018569662713E7" y="3981553.409694918" >
		</node>
		<node id="10008038224" x="-1.4391983888676105E7" y="3981501.27585498" >
		</node>
		<node id="10008038225" x="-1.4390552515319444E7" y="3980224.7597110807" >
		</node>
		<node id="10008038226" x="-1.439052027694577E7" y="3980162.4460955844" >
		</node>
		<node id="10008038227" x="-1.4390510934463354E7" y="3980166.8510004883" >
		</node>
		<node id="10008038228" x="-1.439060800105099E7" y="3980203.268814755" >
		</node>
		<node id="10008038229" x="-1.4390596613676159E7" y="3980208.684432449" >
		</node>
		<node id="10008038230" x="-1.439055095539771E7" y="3980152.1007068898" >
		</node>
		<node id="10011376434" x="-1.4439703836142402E7" y="3977494.498971543" >
		</node>
		<node id="10011640972" x="-1.4445027829051245E7" y="3987834.696994337" >
		</node>
		<node id="10015669956" x="-1.4439821732779346E7" y="3978575.4397230907" >
		</node>
		<node id="10017659301" x="-1.4440170132854111E7" y="3986061.1023399434" >
		</node>
		<node id="10017931167" x="-1.4439072875992162E7" y="3964396.7231668774" >
		</node>
		<node id="10018297998" x="-1.4439726416332662E7" y="3982481.222827058" >
		</node>
		<node id="10024034778" x="-1.4444842172539685E7" y="3986283.7034666715" >
		</node>
		<node id="10024385561" x="-1.4439545509713981E7" y="3977687.1232320294" >
		</node>
		<node id="10024599729" x="-1.4431196224067148E7" y="3957182.4370804415" >
		</node>
		<node id="10026383784" x="-1.444037276738166E7" y="3999140.4602077752" >
		</node>
		<node id="10029271453" x="-1.4451606178909412E7" y="3986000.105106501" >
		</node>
		<node id="1003337748" x="-1.4447845908511018E7" y="4015173.4747437574" >
		</node>
		<node id="1003337751" x="-1.4447852930972325E7" y="4015454.5209465623" >
		</node>
		<node id="1003337754" x="-1.4447862024117293E7" y="4015616.6855843537" >
		</node>
		<node id="1003337756" x="-1.444791044728093E7" y="4015689.690576022" >
		</node>
		<node id="1003380315" x="-1.4448012698655626E7" y="4015621.4040724197" >
		</node>
		<node id="1003380319" x="-1.4447978262283849E7" y="4015557.6203523176" >
		</node>
		<node id="1003380325" x="-1.4447872438742127E7" y="4015515.4116148604" >
		</node>
		<node id="1003380335" x="-1.4447876719994586E7" y="4015566.310219694" >
		</node>
		<node id="1003380336" x="-1.4447974641516374E7" y="4015506.807220169" >
		</node>
		<node id="10038619053" x="-1.4442371029754987E7" y="4013975.6901598247" >
		</node>
		<node id="10038841838" x="-1.4443415547369795E7" y="3989982.1544221323" >
		</node>
		<node id="10039298305" x="-1.4460505660001451E7" y="3984793.01475785" >
		</node>
		<node id="10039673048" x="-1.4441899070789702E7" y="3986455.3630500305" >
		</node>
		<node id="10060890685" x="-1.4438465316522256E7" y="3965049.8482596274" >
		</node>
		<node id="10064126884" x="-1.4452866232628081E7" y="3971189.022882472" >
		</node>
		<node id="10066803187" x="-1.4453388979571622E7" y="3985814.3045927803" >
		</node>
		<node id="10072730943" x="-1.4437652043616619E7" y="3966937.117352873" >
		</node>
		<node id="10072872311" x="-1.4438189127502225E7" y="3970421.7543267794" >
		</node>
		<node id="10074981981" x="-1.4438405082672266E7" y="3970952.438160479" >
		</node>
		<node id="10076272764" x="-1.4434162275008515E7" y="3978544.7932155617" >
		</node>
		<node id="10076571252" x="-1.4442000428480003E7" y="3995216.6314101946" >
		</node>
		<node id="10076795713" x="-1.44445132666598E7" y="4000827.0762035353" >
		</node>
		<node id="10079363474" x="-1.4443486689543834E7" y="3996105.780053069" >
		</node>
		<node id="10079480603" x="-1.4450621210593024E7" y="4017762.234168362" >
		</node>
		<node id="10081842086" x="-1.4438383795521045E7" y="3965320.600688624" >
		</node>
		<node id="10093648144" x="-1.4441991718259094E7" y="3996331.5446790894" >
		</node>
		<node id="10093661027" x="-1.4452790216861865E7" y="4019541.2333203848" >
		</node>
		<node id="10093661028" x="-1.4452825920543196E7" y="4019536.316054136" >
		</node>
		<node id="10093661029" x="-1.4453373502956467E7" y="4027139.558422274" >
		</node>
		<node id="10093661030" x="-1.4453347855280915E7" y="4027129.473044692" >
		</node>
		<node id="10095378438" x="-1.444454160123122E7" y="3999509.5925135203" >
		</node>
		<node id="10097190286" x="-1.4400578483587425E7" y="3988688.7054184894" >
		</node>
		<node id="10097871671" x="-1.4399120701707024E7" y="3988870.9298555315" >
		</node>
		<node id="10098076311" x="-1.4396840075926997E7" y="3989052.2540608863" >
		</node>
		<node id="10098167973" x="-1.4394315952962158E7" y="3986472.3873811606" >
		</node>
		<node id="10100604849" x="-1.445573198555267E7" y="4033333.695438941" >
		</node>
		<node id="10100940903" x="-1.444023076367254E7" y="4004995.0466818935" >
		</node>
		<node id="10108106770" x="-1.443903864166015E7" y="3974317.482597572" >
		</node>
		<node id="10108538384" x="-1.444839057191103E7" y="3984986.8288918147" >
		</node>
		<node id="10108538385" x="-1.4448154550775029E7" y="3983650.07970243" >
		</node>
		<node id="10108538386" x="-1.44481920220546E7" y="3982388.9786903323" >
		</node>
		<node id="10108538388" x="-1.4447831487721032E7" y="3979394.6291711144" >
		</node>
		<node id="10110213709" x="-1.4447174386653759E7" y="3972759.108494139" >
		</node>
		<node id="10110213710" x="-1.444717791083736E7" y="3972812.2474958305" >
		</node>
		<node id="10110213712" x="-1.4447920334862325E7" y="3979547.958481019" >
		</node>
		<node id="10111525087" x="-1.4448175473080555E7" y="3983530.9178268886" >
		</node>
		<node id="10111525088" x="-1.4448154840547232E7" y="3982223.3991670953" >
		</node>
		<node id="10111525090" x="-1.4448018902279956E7" y="3980873.6294613406" >
		</node>
		<node id="10114066218" x="-1.444725368974455E7" y="3974679.0380437006" >
		</node>
		<node id="10114622035" x="-1.4444500563600663E7" y="3966306.854075402" >
		</node>
		<node id="10114622036" x="-1.4444596750129508E7" y="3966302.1972760432" >
		</node>
		<node id="10120616013" x="-1.445263487380792E7" y="3970409.732560919" >
		</node>
		<node id="10126131053" x="-1.443092096783723E7" y="3979067.4223621283" >
		</node>
		<node id="10127531964" x="-1.4432669669080835E7" y="3978728.0925346576" >
		</node>
		<node id="10127681621" x="-1.4447276386390192E7" y="3970680.525073103" >
		</node>
		<node id="10129955300" x="-1.4417798799736757E7" y="3947170.888480861" >
		</node>
		<node id="10130233356" x="-1.4418187785989458E7" y="3947572.5443652244" >
		</node>
		<node id="1013077312" x="-1.4445360409367848E7" y="3989282.9035170716" >
		</node>
		<node id="1013077364" x="-1.4445051205761041E7" y="3988077.6994557064" >
		</node>
		<node id="1013077384" x="-1.4445061290006286E7" y="3987170.9008814795" >
		</node>
		<node id="1013077405" x="-1.4445253498740027E7" y="3984174.9963925215" >
		</node>
		<node id="10131871840" x="-1.4448680495299347E7" y="3986224.2473290716" >
		</node>
		<node id="10140069623" x="-1.4439254911416482E7" y="3974759.790901627" >
		</node>
		<node id="10140069624" x="-1.4439233885954253E7" y="3974730.983450921" >
		</node>
		<node id="10140069625" x="-1.4439035290998511E7" y="3974283.05521654" >
		</node>
		<node id="10140069626" x="-1.4439044336131299E7" y="3974058.9913661936" >
		</node>
		<node id="10142916074" x="-1.4439271360542217E7" y="3974617.1729932637" >
		</node>
		<node id="10142916075" x="-1.4439598628179058E7" y="3975546.441111869" >
		</node>
		<node id="10147436753" x="-1.443769503957403E7" y="3967313.988040208" >
		</node>
		<node id="10147436760" x="-1.4437872636204807E7" y="3968832.6910360563" >
		</node>
		<node id="10147436762" x="-1.443785112590461E7" y="3968640.784591368" >
		</node>
		<node id="10148274542" x="-1.4439252047187844E7" y="3966687.4329350567" >
		</node>
		<node id="10161173071" x="-1.4398746013013458E7" y="3989078.261035517" >
		</node>
		<node id="10188452441" x="-1.4440072141940901E7" y="3966248.4485053243" >
		</node>
		<node id="10220000385" x="-1.4449137551458856E7" y="3989006.5254040454" >
		</node>
		<node id="10220000387" x="-1.4449140921792163E7" y="3989064.2693128544" >
		</node>
		<node id="10223479948" x="-1.443972789045755E7" y="3976129.4110695766" >
		</node>
		<node id="10225510385" x="-1.4445116314459644E7" y="3987550.6230720747" >
		</node>
		<node id="1025840246" x="-1.44420365918142E7" y="4010961.893477061" >
		</node>
		<node id="1025840251" x="-1.4442043740317311E7" y="4011009.0413550306" >
		</node>
		<node id="1025840255" x="-1.444200952811862E7" y="4010960.1202818183" >
		</node>
		<node id="10264425407" x="-1.444525958614536E7" y="3983922.7812740314" >
		</node>
		<node id="1027676477" x="-1.4441354403099282E7" y="4009874.203565035" >
		</node>
		<node id="10295120931" x="-1.4439679487667488E7" y="3982105.4893178544" >
		</node>
		<node id="10299907035" x="-1.4442558368584823E7" y="4011999.957849672" >
		</node>
		<node id="10313134680" x="-1.4402370111868909E7" y="3988822.102661162" >
		</node>
		<node id="10539656544" x="-1.4445019824760381E7" y="3987575.5902798367" >
		</node>
		<node id="10539656545" x="-1.4445117784629138E7" y="3987762.0651678657" >
		</node>
		<node id="10564302634" x="-1.4440728278398696E7" y="3988635.586478513" >
		</node>
		<node id="10566978220" x="-1.4438871197142996E7" y="3972042.699616961" >
		</node>
		<node id="10593109862" x="-1.4439825673641445E7" y="3977195.7309780554" >
		</node>
		<node id="10593194057" x="-1.4441462180116702E7" y="3989587.7895334647" >
		</node>
		<node id="10593214609" x="-1.4443977412429247E7" y="3986332.2285338496" >
		</node>
		<node id="10594454198" x="-1.4447285421142137E7" y="3975760.322836983" >
		</node>
		<node id="10594454199" x="-1.444727369197493E7" y="3975625.102051266" >
		</node>
		<node id="10698125084" x="-1.444122416215982E7" y="3991623.5918006646" >
		</node>
		<node id="10699903579" x="-1.443768549563703E7" y="3967033.8214417887" >
		</node>
		<node id="10699903581" x="-1.443775635041175E7" y="3967051.9266157863" >
		</node>
		<node id="10711273238" x="-1.4454802707857497E7" y="4031897.956903841" >
		</node>
		<node id="10711273247" x="-1.445473424618772E7" y="4031709.4536497486" >
		</node>
		<node id="10711273261" x="-1.4454605439381454E7" y="4031796.403513711" >
		</node>
		<node id="10711282327" x="-1.4455998640671434E7" y="4037301.914039735" >
		</node>
		<node id="10711294121" x="-1.445962275251315E7" y="4047247.7114396137" >
		</node>
		<node id="10711316942" x="-1.4455971025995445E7" y="4033945.4970773207" >
		</node>
		<node id="10711316945" x="-1.4455840227756957E7" y="4033786.4564068546" >
		</node>
		<node id="10711326705" x="-1.4454439476326527E7" y="4030473.133507584" >
		</node>
		<node id="10711343137" x="-1.4397275013464915E7" y="3989790.1616084324" >
		</node>
		<node id="10711343139" x="-1.439740735710376E7" y="3989632.722536463" >
		</node>
		<node id="10711343142" x="-1.4397348597823262E7" y="3989578.870282363" >
		</node>
		<node id="10867693640" x="-1.4438278791697584E7" y="3970326.9983648146" >
		</node>
		<node id="10867693642" x="-1.4438193213240968E7" y="3970145.825608338" >
		</node>
		<node id="10870883066" x="-1.4437822433374597E7" y="3969254.217420128" >
		</node>
		<node id="10870883067" x="-1.443788816845314E7" y="3969441.1667667674" >
		</node>
		<node id="10889532124" x="-1.4438181569023632E7" y="3970379.5217896635" >
		</node>
		<node id="10905144761" x="-1.445477674287192E7" y="4021116.5236227945" >
		</node>
		<node id="10905144766" x="-1.4454748009327943E7" y="4021093.958805821" >
		</node>
		<node id="10959274212" x="-1.4441097266795967E7" y="3989074.7720730826" >
		</node>
		<node id="10961076354" x="-1.4447224113402933E7" y="3975805.6932839793" >
		</node>
		<node id="10961136347" x="-1.4447199131515516E7" y="3973833.1580561916" >
		</node>
		<node id="10961313781" x="-1.4447497346919715E7" y="3978573.889371034" >
		</node>
		<node id="10962898616" x="-1.444728829177861E7" y="3974085.7104687677" >
		</node>
		<node id="10965502197" x="-1.4447777978656327E7" y="3970158.00211757" >
		</node>
		<node id="10970194482" x="-1.4447403686474847E7" y="3978376.115595935" >
		</node>
		<node id="10970438622" x="-1.4447052565700643E7" y="3971504.619749322" >
		</node>
		<node id="10970600442" x="-1.4455010902801184E7" y="4021129.5024019107" >
		</node>
		<node id="10972448026" x="-1.4447704166236069E7" y="3969937.8423563954" >
		</node>
		<node id="10972480260" x="-1.4449862698703961E7" y="4017062.855581587" >
		</node>
		<node id="10972786861" x="-1.4447676619511781E7" y="3968941.9078214536" >
		</node>
		<node id="10976450889" x="-1.4442513252036208E7" y="4012020.933084948" >
		</node>
		<node id="10983679779" x="-1.4410134720590621E7" y="3937191.626232883" >
		</node>
		<node id="10983774785" x="-1.444271493215402E7" y="4016676.2557893377" >
		</node>
		<node id="10991855570" x="-1.4429736674621018E7" y="4023597.4818885326" >
		</node>
		<node id="10991896928" x="-1.4427850428985339E7" y="4022830.6973399282" >
		</node>
		<node id="10991911491" x="-1.4389912658711309E7" y="3979595.928253439" >
		</node>
		<node id="10994055942" x="-1.4410239659349574E7" y="3938144.978759077" >
		</node>
		<node id="11036999725" x="-1.4442787927383225E7" y="4020673.684410706" >
		</node>
		<node id="11053505905" x="-1.4409752241735345E7" y="3934580.4468088686" >
		</node>
		<node id="11053505906" x="-1.4409773591201011E7" y="3934593.32874181" >
		</node>
		<node id="11053505908" x="-1.4409711591825366E7" y="3934555.92931959" >
		</node>
		<node id="11066410582" x="-1.4389122187572923E7" y="4008405.3817259986" >
		</node>
		<node id="11076024260" x="-1.4461893289475886E7" y="3984709.531763664" >
		</node>
		<node id="11117993788" x="-1.4412161487641916E7" y="3942461.8505009506" >
		</node>
		<node id="11121985760" x="-1.4455957506570868E7" y="4034737.552442641" >
		</node>
		<node id="11196218759" x="-1.4454962400037913E7" y="4021067.5020974795" >
		</node>
		<node id="11197017536" x="-1.4445484638021631E7" y="4010248.961222573" >
		</node>
		<node id="11270882990" x="-1.445486175159341E7" y="4024835.145490406" >
		</node>
		<node id="11476616551" x="-1.444761975475743E7" y="3967959.655620457" >
		</node>
		<node id="11495514549" x="-1.4454840656600282E7" y="4014963.1872514477" >
		</node>
		<node id="11500581183" x="-1.445342115845883E7" y="3985181.453651245" >
		</node>
		<node id="11560169344" x="-1.444939153919595E7" y="4023892.595762544" >
		</node>
		<node id="11560173648" x="-1.444139400822913E7" y="3991798.64082798" >
		</node>
		<node id="11560176590" x="-1.4442782052082893E7" y="4019267.0587292346" >
		</node>
		<node id="1173940983" x="-1.443817338115321E7" y="3970104.485567933" >
		</node>
		<node id="1173975086" x="-1.4444499787928594E7" y="3986292.915534957" >
		</node>
		<node id="1173975116" x="-1.4444318563495211E7" y="3986282.670220447" >
		</node>
		<node id="11875710299" x="-1.445495651911642E7" y="4024384.176178452" >
		</node>
		<node id="11932941567" x="-1.4441494741931308E7" y="3989675.8779821815" >
		</node>
		<node id="11932968879" x="-1.4441484020953177E7" y="3989675.6757052517" >
		</node>
		<node id="11932968884" x="-1.4441499416750902E7" y="3989684.0691079586" >
		</node>
		<node id="12008521387" x="-1.4397363278763283E7" y="3989573.0035804408" >
		</node>
		<node id="12008521388" x="-1.4397443603989933E7" y="3989658.8483954077" >
		</node>
		<node id="12094278022" x="-1.440245731383263E7" y="3989007.584915575" >
		</node>
		<node id="12094278029" x="-1.4402330458038628E7" y="3988890.6061164294" >
		</node>
		<node id="12094310009" x="-1.4402122952829333E7" y="3988904.833127843" >
		</node>
		<node id="12151207575" x="-1.4447143649817178E7" y="3972559.9339991882" >
		</node>
		<node id="12178543688" x="-1.4396277863591347E7" y="3988541.815563654" >
		</node>
		<node id="12178543689" x="-1.4396937094157869E7" y="3989188.649588299" >
		</node>
		<node id="1218576975" x="-1.4441490731277363E7" y="3989685.7772725057" >
		</node>
		<node id="1218576977" x="-1.4441482774475072E7" y="3989687.8345253738" >
		</node>
		<node id="1218576986" x="-1.4441494929311868E7" y="3989674.015863681" >
		</node>
		<node id="1218576992" x="-1.4441490456052551E7" y="3989680.5156707168" >
		</node>
		<node id="1218576993" x="-1.4441517543649934E7" y="3989681.1070740162" >
		</node>
		<node id="1218577008" x="-1.444148312309226E7" y="3989674.4197914083" >
		</node>
		<node id="1218577016" x="-1.444152738894401E7" y="3989685.5077971187" >
		</node>
		<node id="12204798570" x="-1.4455177192759292E7" y="4023668.8005470005" >
		</node>
		<node id="12209150839" x="-1.4440768901072837E7" y="4004045.8729939847" >
		</node>
		<node id="12253183215" x="-1.4448150671681324E7" y="3981726.139589236" >
		</node>
		<node id="12253183216" x="-1.4448036072915755E7" y="3981138.1220079097" >
		</node>
		<node id="12262712962" x="-1.444724323718439E7" y="3966618.756923677" >
		</node>
		<node id="12262712966" x="-1.4447316892432196E7" y="3966688.4512459137" >
		</node>
		<node id="12346373180" x="-1.4442847405499522E7" y="4017781.040904042" >
		</node>
		<node id="12349505806" x="-1.4439690701841928E7" y="3977106.0476159053" >
		</node>
		<node id="12406030997" x="-1.441014354283692E7" y="3937425.936085416" >
		</node>
		<node id="12406091486" x="-1.4411316241678635E7" y="3941657.5725594666" >
		</node>
		<node id="12406394858" x="-1.4419168373662392E7" y="3949117.1781051373" >
		</node>
		<node id="12406406930" x="-1.4438052360063612E7" y="3965570.484575608" >
		</node>
		<node id="12406409456" x="-1.4448178155190915E7" y="3986207.4494092595" >
		</node>
		<node id="12406412917" x="-1.443867231479453E7" y="3978534.4020295395" >
		</node>
		<node id="12406416331" x="-1.4419383633547788E7" y="3951383.6116660065" >
		</node>
		<node id="12406423600" x="-1.4428521206136053E7" y="3955917.0733723296" >
		</node>
		<node id="12406424990" x="-1.4415026910924414E7" y="3944502.165037225" >
		</node>
		<node id="12406431531" x="-1.4438887567530863E7" y="3964646.35941399" >
		</node>
		<node id="12406436982" x="-1.4437787003366416E7" y="3968561.2238550778" >
		</node>
		<node id="12406451327" x="-1.4439637393890278E7" y="3977960.3988760253" >
		</node>
		<node id="12406471293" x="-1.4437674139993666E7" y="3966498.7668463145" >
		</node>
		<node id="12406489093" x="-1.4419274151898067E7" y="3949988.5442295745" >
		</node>
		<node id="12406498344" x="-1.4424675349390766E7" y="3954313.266587593" >
		</node>
		<node id="12437851586" x="-1.4428624859977432E7" y="3985238.3509765533" >
		</node>
		<node id="12438006289" x="-1.441923423110105E7" y="3950010.531504592" >
		</node>
		<node id="12438006290" x="-1.4419237875431137E7" y="3950054.4009079793" >
		</node>
		<node id="12438015561" x="-1.4414971713456944E7" y="3944495.2255201307" >
		</node>
		<node id="12438027640" x="-1.442631508479802E7" y="3955115.537850563" >
		</node>
		<node id="12438151071" x="-1.443772679396764E7" y="3967475.4659019033" >
		</node>
		<node id="12438204728" x="-1.4437723319958478E7" y="3966638.038992948" >
		</node>
		<node id="12499995204" x="-1.4446288253872318E7" y="3986304.3512278935" >
		</node>
		<node id="12499995219" x="-1.4447040116733575E7" y="3986290.189051123" >
		</node>
		<node id="12499996267" x="-1.4447067903620303E7" y="3986379.9367550225" >
		</node>
		<node id="12499996297" x="-1.4446858071725823E7" y="3986385.6285978374" >
		</node>
		<node id="12506518182" x="-1.4445209237138955E7" y="3966270.056295038" >
		</node>
		<node id="12506518189" x="-1.4444713203512602E7" y="3966246.32171357" >
		</node>
		<node id="12506518198" x="-1.4444177194397196E7" y="3966296.729528861" >
		</node>
		<node id="12507243913" x="-1.4393501702176329E7" y="3985570.371710982" >
		</node>
		<node id="12522369281" x="-1.4452755599390715E7" y="3971133.672058204" >
		</node>
		<node id="12685741529" x="-1.4451932788795158E7" y="3969848.027636449" >
		</node>
		<node id="12685741537" x="-1.4451863193028996E7" y="3969929.7459139256" >
		</node>
		<node id="1328443789" x="-1.4449060697861755E7" y="3986683.1049931305" >
		</node>
		<node id="1338395288" x="-1.444189313055246E7" y="4010754.1667616833" >
		</node>
		<node id="1338395319" x="-1.4439888179037139E7" y="4002201.3017366454" >
		</node>
		<node id="1338395328" x="-1.4441891405594116E7" y="4010789.8448569737" >
		</node>
		<node id="1385864097" x="-1.443992466606757E7" y="3962621.395344867" >
		</node>
		<node id="1385864098" x="-1.4429419531570744E7" y="3985975.4547234615" >
		</node>
		<node id="1385864099" x="-1.4429606514604427E7" y="3986000.9212880335" >
		</node>
		<node id="1385864101" x="-1.443025158710462E7" y="3986586.6643703864" >
		</node>
		<node id="1385864102" x="-1.4445221133768942E7" y="3989173.778017296" >
		</node>
		<node id="1385864104" x="-1.4441120063505013E7" y="3990887.8384130253" >
		</node>
		<node id="1385864105" x="-1.4441204342690127E7" y="3991372.6369774053" >
		</node>
		<node id="1385864110" x="-1.445458261499144E7" y="4031623.139976244" >
		</node>
		<node id="1395957582" x="-1.4444860428943088E7" y="3995865.1444611046" >
		</node>
		<node id="1468889935" x="-1.444163023363655E7" y="4010418.5308370427" >
		</node>
		<node id="1468889936" x="-1.4441795733839182E7" y="4010613.128658583" >
		</node>
		<node id="1468889938" x="-1.4460037604441848E7" y="4048326.5931305485" >
		</node>
		<node id="1468889939" x="-1.4460002995906597E7" y="4049251.55958549" >
		</node>
		<node id="1475680265" x="-1.4449039237455161E7" y="3986591.2762682918" >
		</node>
		<node id="1475680267" x="-1.4449367265920505E7" y="3987631.6418822138" >
		</node>
		<node id="1475680276" x="-1.444919870053101E7" y="3986898.8256705604" >
		</node>
		<node id="1476444249" x="-1.444751565742943E7" y="3978859.0069249123" >
		</node>
		<node id="1476444250" x="-1.4447313713745497E7" y="3977134.2661748677" >
		</node>
		<node id="1476444259" x="-1.4448175171917923E7" y="3983588.0664568655" >
		</node>
		<node id="1476444260" x="-1.444805361280926E7" y="3980142.4989367235" >
		</node>
		<node id="1476444261" x="-1.4448899638553474E7" y="3985893.2172789364" >
		</node>
		<node id="1476444264" x="-1.4447390791663E7" y="3977897.602698722" >
		</node>
		<node id="1476444265" x="-1.4448162896631828E7" y="3984620.119916863" >
		</node>
		<node id="1476444274" x="-1.4448115384561874E7" y="3983778.1611301755" >
		</node>
		<node id="1476444284" x="-1.4448113428128192E7" y="3981013.3967843875" >
		</node>
		<node id="1476444286" x="-1.4448184765741263E7" y="3982292.0017984984" >
		</node>
		<node id="1476444300" x="-1.44473567905579E7" y="3977537.990012641" >
		</node>
		<node id="1476444302" x="-1.4448231361686362E7" y="3984824.135033639" >
		</node>
		<node id="1476444316" x="-1.4448112015207214E7" y="3980997.8823723523" >
		</node>
		<node id="1476444325" x="-1.444884586388677E7" y="3985563.805821072" >
		</node>
		<node id="1476444330" x="-1.444807282951814E7" y="3980313.447061009" >
		</node>
		<node id="1476444343" x="-1.4448806295275671E7" y="3985487.5679308986" >
		</node>
		<node id="1476444355" x="-1.44480381220083E7" y="3979851.727022112" >
		</node>
		<node id="1476444361" x="-1.4448113119293613E7" y="3983835.5289245825" >
		</node>
		<node id="1476444364" x="-1.4448074044670634E7" y="3980233.7419358757" >
		</node>
		<node id="1476444370" x="-1.4448105292300591E7" y="3980857.5177579294" >
		</node>
		<node id="1476494728" x="-1.4447134094120689E7" y="3972323.5728365188" >
		</node>
		<node id="1476494729" x="-1.4447321944227692E7" y="3976859.413174623" >
		</node>
		<node id="1476494738" x="-1.4447168656351356E7" y="3972653.1359063215" >
		</node>
		<node id="1476495502" x="-1.4447703047250528E7" y="3969395.065490782" >
		</node>
		<node id="1476551988" x="-1.4441730404266885E7" y="3966218.686856466" >
		</node>
		<node id="1476552008" x="-1.4447642307703344E7" y="3968676.0536488984" >
		</node>
		<node id="1476552023" x="-1.4443353709303895E7" y="3966407.941644843" >
		</node>
		<node id="1476552043" x="-1.4447555702648215E7" y="3967054.390376505" >
		</node>
		<node id="1476573058" x="-1.4446765182695357E7" y="3966350.318572073" >
		</node>
		<node id="1476573061" x="-1.44477007528143E7" y="3969350.6829122948" >
		</node>
		<node id="1476573064" x="-1.4447019399195747E7" y="3966474.9241947355" >
		</node>
		<node id="1476573067" x="-1.4449349728626821E7" y="3987678.209792462" >
		</node>
		<node id="1476573068" x="-1.4447261694748254E7" y="3966631.8136586687" >
		</node>
		<node id="1476573070" x="-1.4447531587851407E7" y="3966957.447137807" >
		</node>
		<node id="1476573072" x="-1.444755256624442E7" y="3967001.7399441586" >
		</node>
		<node id="1476573083" x="-1.4446701142108142E7" y="3966326.7247801363" >
		</node>
		<node id="1476573090" x="-1.4447432074393125E7" y="3966789.3753861147" >
		</node>
		<node id="1476819382" x="-1.4437769231369589E7" y="3967053.8377800174" >
		</node>
		<node id="1476819401" x="-1.4439834696648344E7" y="3966330.0838015494" >
		</node>
		<node id="1476819416" x="-1.4441741576862082E7" y="3966204.5426322916" >
		</node>
		<node id="1476819443" x="-1.4442097504345117E7" y="3966342.234404994" >
		</node>
		<node id="1476819527" x="-1.4440681679476507E7" y="3966193.1247472917" >
		</node>
		<node id="1476819531" x="-1.443894086901979E7" y="3966930.5151267373" >
		</node>
		<node id="1476819582" x="-1.4440802098942136E7" y="3966186.921735712" >
		</node>
		<node id="1476819599" x="-1.4437945067033561E7" y="3967043.1709151086" >
		</node>
		<node id="1476873399" x="-1.4449121308084419E7" y="3988729.857856882" >
		</node>
		<node id="1476873410" x="-1.4449112300833492E7" y="3988593.6492111757" >
		</node>
		<node id="1476873413" x="-1.4449131219180422E7" y="3988898.0344995754" >
		</node>
		<node id="1476873429" x="-1.4449160042375239E7" y="3989413.5973331463" >
		</node>
		<node id="1476873435" x="-1.4449108864461085E7" y="3988538.9397367975" >
		</node>
		<node id="1476873444" x="-1.4449118047770564E7" y="3988679.25155309" >
		</node>
		<node id="1495904154" x="-1.4438402704468204E7" y="3965309.148711887" >
		</node>
		<node id="1495904223" x="-1.443857857747957E7" y="3965162.5010277787" >
		</node>
		<node id="1573548246" x="-1.44367242195261E7" y="3986181.4341447153" >
		</node>
		<node id="1573548247" x="-1.4436729344257234E7" y="3986276.380420923" >
		</node>
		<node id="1574971171" x="-1.4439911693713298E7" y="3984355.029177969" >
		</node>
		<node id="1574971178" x="-1.443987872536864E7" y="3984357.0947737284" >
		</node>
		<node id="1574971186" x="-1.4439895131113295E7" y="3984361.785573823" >
		</node>
		<node id="1574971199" x="-1.4439916174318684E7" y="3984364.967631904" >
		</node>
		<node id="1574971202" x="-1.4439877773373045E7" y="3984367.234309204" >
		</node>
		<node id="1574971217" x="-1.4439900489695603E7" y="3984369.7397436844" >
		</node>
		<node id="1574971234" x="-1.4439921862899896E7" y="3984374.773249136" >
		</node>
		<node id="1574971237" x="-1.4439880278770892E7" y="3984378.107506992" >
		</node>
		<node id="1584182715" x="-1.4430732901304966E7" y="3986095.774513338" >
		</node>
		<node id="1584182749" x="-1.4431822176692398E7" y="3986069.743382204" >
		</node>
		<node id="1584279995" x="-1.4432758426098421E7" y="3986241.3034159057" >
		</node>
		<node id="1584279996" x="-1.4432823231969377E7" y="3986264.73259563" >
		</node>
		<node id="1584299486" x="-1.443699356111117E7" y="3986154.4075983963" >
		</node>
		<node id="1584299487" x="-1.4437052638484433E7" y="3986150.6594935316" >
		</node>
		<node id="1584299491" x="-1.4438482922826907E7" y="3986075.667692638" >
		</node>
		<node id="1584299493" x="-1.443857353211924E7" y="3986069.510174655" >
		</node>
		<node id="1584299505" x="-1.4437897440358212E7" y="3986108.1674573217" >
		</node>
		<node id="1584299512" x="-1.4437966299575161E7" y="3986103.3855410996" >
		</node>
		<node id="1584299513" x="-1.4438022288379565E7" y="3986100.3338655415" >
		</node>
		<node id="1584299515" x="-1.4437291255407557E7" y="3986145.141572665" >
		</node>
		<node id="1584299516" x="-1.4437360103917543E7" y="3986140.538563478" >
		</node>
		<node id="1584299519" x="-1.4438615617778597E7" y="3986081.838902605" >
		</node>
		<node id="1584299521" x="-1.4438486590580974E7" y="3986089.0705060177" >
		</node>
		<node id="1584299524" x="-1.4437050786235742E7" y="3986168.2047838196" >
		</node>
		<node id="1584299530" x="-1.4437897273703473E7" y="3986125.79254241" >
		</node>
		<node id="1584299532" x="-1.4437968175091766E7" y="3986121.5861636675" >
		</node>
		<node id="1584299534" x="-1.443736297898057E7" y="3986157.389572734" >
		</node>
		<node id="1584299536" x="-1.4437290120037198E7" y="3986161.2023207224" >
		</node>
		<node id="1584299547" x="-1.4437053126975365E7" y="3986183.688746936" >
		</node>
		<node id="1584299549" x="-1.4437058369650649E7" y="3986197.0887285336" >
		</node>
		<node id="1586472258" x="-1.4434417180597203E7" y="3986433.169941055" >
		</node>
		<node id="1586499123" x="-1.4441260208691634E7" y="3991604.504639119" >
		</node>
		<node id="1586499124" x="-1.4441190001014017E7" y="3991611.2069867523" >
		</node>
		<node id="1586499166" x="-1.4441216947375756E7" y="3991743.845215401" >
		</node>
		<node id="1589889111" x="-1.4442330832955934E7" y="3996218.5693835863" >
		</node>
		<node id="1589889114" x="-1.4442224571480932E7" y="3996264.746275516" >
		</node>
		<node id="1589941676" x="-1.4440581568117904E7" y="3988485.409324005" >
		</node>
		<node id="1589941714" x="-1.4442887615945993E7" y="3994294.5736226235" >
		</node>