<?xml version="1.0" ?>
<!DOCTYPE plans SYSTEM "http://www.matsim.org/files/dtd/plans_v4.dtd">
<plans xml:lang="de-CH"><person id="1"><plan selected="yes"><act type="h" x="-14444985.385382125" y="3989933.302721575" end_time="03:00:00" /><leg mode="car" /><act type="h" x="-14440564.61986375" y="3988473.0541087748" start_time="03:00:00" end_time="11:00:00" /></plan></person><person id="2"><plan selected="yes"><act type="h" x="-14440914.028514294" y="3988752.389456103" end_time="03:00:00" /><leg mode="car" /><act type="h" x="-14449349.956910608" y="3989609.2661278974" start_time="03:00:00" end_time="11:00:00" /></plan></person><person id="3"><plan selected="yes"><act type="h" x="-14445256.64433203" y="3989327.9588983273" end_time="04:00:00" /><leg mode="car" /><act type="h" x="-14445306.934668928" y="3986338.089080492" start_time="04:00:00" end_time="12:00:00" /></plan></person><person id="4"><plan selected="yes"><act type="h" x="-14444136.383942707" y="3986304.431019204" end_time="05:00:00" /><leg mode="car" /><act type="h" x="-14441668.208593503" y="3986439.970559207" start_time="05:00:00" end_time="13:00:00" /></plan></person><person id="5"><plan selected="yes"><act type="h" x="-14440296.500587964" y="3986571.5472637373" end_time="05:00:00" /><leg mode="car" /><act type="h" x="-14446745.999149963" y="3986351.7069146144" start_time="05:00:00" end_time="13:00:00" /></plan></person><person id="6"><plan selected="yes"><act type="h" x="-14441220.665775372" y="3989201.0052864975" end_time="05:00:00" /><leg mode="car" /><act type="h" x="-14445028.554850131" y="3987710.8918141453" start_time="05:00:00" end_time="13:00:00" /></plan></person><person id="7"><plan selected="yes"><act type="h" x="-14444978.45020814" y="3989845.2482132283" end_time="06:00:00" /><leg mode="car" /><act type="h" x="-14442398.076377075" y="3986414.6662834124" start_time="06:00:00" end_time="14:00:00" /></plan></person><person id="8"><plan selected="yes"><act type="h" x="-14448824.435572747" y="3989451.7145243953" end_time="06:00:00" /><leg mode="car" /><act type="h" x="-14446020.273341596" y="3989797.715794894" start_time="06:00:00" end_time="14:00:00" /></plan></person><person id="9"><plan selected="yes"><act type="h" x="-14449134.05331425" y="3989382.381140774" end_time="06:00:00" /><leg mode="car" /><act type="h" x="-14444957.333198054" y="3986341.7479965272" start_time="06:00:00" end_time="14:00:00" /></plan></person><person id="10"><plan selected="yes"><act type="h" x="-14447851.820246879" y="3986245.319641153" end_time="06:00:00" /><leg mode="car" /><act type="h" x="-14449100.757379277" y="3988357.2955280636" start_time="06:00:00" end_time="14:00:00" /></plan></person><person id="11"><plan selected="yes"><act type="h" x="-14446803.015354054" y="3986388.5388370203" end_time="07:00:00" /><leg mode="car" /><act type="h" x="-14445049.010399627" y="3988162.9127855464" start_time="07:00:00" end_time="15:00:00" /></plan></person><person id="12"><plan selected="yes"><act type="h" x="-14440984.734667417" y="3988768.381997483" end_time="07:00:00" /><leg mode="car" /><act type="h" x="-14445569.383662814" y="3989545.826014373" start_time="07:00:00" end_time="15:00:00" /></plan></person><person id="13"><plan selected="yes"><act type="h" x="-14448723.695820823" y="3989509.834916643" end_time="07:00:00" /><leg mode="car" /><act type="h" x="-14440981.690186404" y="3986514.3027511206" start_time="07:00:00" end_time="15:00:00" /></plan></person><person id="14"><plan selected="yes"><act type="h" x="-14444893.087122604" y="3990012.907542709" end_time="07:00:00" /><leg mode="car" /><act type="h" x="-14440485.619506972" y="3988485.22893856" start_time="07:00:00" end_time="15:00:00" /></plan></person><person id="15"><plan selected="yes"><act type="h" x="-14446970.682944587" y="3986297.989965494" end_time="07:00:00" /><leg mode="car" /><act type="h" x="-14441220.665775372" y="3989201.0052864975" start_time="07:00:00" end_time="15:00:00" /></plan></person><person id="16"><plan selected="yes"><act type="h" x="-14441043.97175725" y="3988906.723394171" end_time="07:00:00" /><leg mode="car" /><act type="h" x="-14443841.97828461" y="3986248.4995890274" start_time="07:00:00" end_time="15:00:00" /></plan></person><person id="17"><plan selected="yes"><act type="h" x="-14449316.303319683" y="3987183.4275910784" end_time="08:00:00" /><leg mode="car" /><act type="h" x="-14445097.863922726" y="3987692.0692201233" start_time="08:00:00" end_time="16:00:00" /></plan></person><person id="18"><plan selected="yes"><act type="h" x="-14441376.673570037" y="3989840.1944717634" end_time="08:00:00" /><leg mode="car" /><act type="h" x="-14441902.495769104" y="3986396.827694558" start_time="08:00:00" end_time="16:00:00" /></plan></person><person id="19"><plan selected="yes"><act type="h" x="-14445068.392488787" y="3988739.6664446634" end_time="08:00:00" /><leg mode="car" /><act type="h" x="-14449000.344456293" y="3989609.203364305" start_time="08:00:00" end_time="16:00:00" /></plan></person><person id="20"><plan selected="yes"><act type="h" x="-14445189.040232947" y="3986176.48966159" end_time="08:00:00" /><leg mode="car" /><act type="h" x="-14440644.438390803" y="3988585.456165443" start_time="08:00:00" end_time="16:00:00" /></plan></person><person id="21"><plan selected="yes"><act type="h" x="-14449088.445848275" y="3988597.3646917455" end_time="08:00:00" /><leg mode="car" /><act type="h" x="-14443899.889170455" y="3986275.3083484895" start_time="08:00:00" end_time="16:00:00" /></plan></person><person id="22"><plan selected="yes"><act type="h" x="-14445420.953441018" y="3989833.8447737386" end_time="08:00:00" /><leg mode="car" /><act type="h" x="-14449197.879604973" y="3989702.507800755" start_time="08:00:00" end_time="16:00:00" /></plan></person><person id="23"><plan selected="yes"><act type="h" x="-14449088.248237383" y="3989117.4338424145" end_time="09:00:00" /><leg mode="car" /><act type="h" x="-14441519.896000888" y="3989519.0067093153" start_time="09:00:00" end_time="17:00:00" /></plan></person><person id="24"><plan selected="yes"><act type="h" x="-14448904.67727334" y="3989728.8761565457" end_time="09:00:00" /><leg mode="car" /><act type="h" x="-14443898.412369529" y="3986277.175491596" start_time="09:00:00" end_time="17:00:00" /></plan></person><person id="25"><plan selected="yes"><act type="h" x="-14443972.744864281" y="3986311.841712334" end_time="09:00:00" /><leg mode="car" /><act type="h" x="-14445100.56798389" y="3986321.635902735" start_time="09:00:00" end_time="17:00:00" /></plan></person><person id="26"><plan selected="yes"><act type="h" x="-14448603.294548852" y="3989673.047414893" end_time="09:00:00" /><leg mode="car" /><act type="h" x="-14449150.64708858" y="3989237.413319028" start_time="09:00:00" end_time="17:00:00" /></plan></person><person id="27"><plan selected="yes"><act type="h" x="-14443712.714056607" y="3990005.0679142047" end_time="09:00:00" /><leg mode="car" /><act type="h" x="-14441169.422858497" y="3989145.338739268" start_time="09:00:00" end_time="17:00:00" /></plan></person><person id="28"><plan selected="yes"><act type="h" x="-14440224.924190698" y="3986649.3642431726" end_time="09:00:00" /><leg mode="car" /><act type="h" x="-14448863.766954325" y="3989422.808924491" start_time="09:00:00" end_time="17:00:00" /></plan></person><person id="29"><plan selected="yes"><act type="h" x="-14445075.61010594" y="3987674.850237096" end_time="09:00:00" /><leg mode="car" /><act type="h" x="-14443850.077689124" y="3986318.4646144896" start_time="09:00:00" end_time="17:00:00" /></plan></person><person id="30"><plan selected="yes"><act type="h" x="-14440371.792792287" y="3986764.0360319396" end_time="10:00:00" /><leg mode="car" /><act type="h" x="-14444123.350286683" y="3990112.4605345945" start_time="10:00:00" end_time="18:00:00" /></plan></person><person id="31"><plan selected="yes"><act type="h" x="-14441141.50270237" y="3989081.7244336014" end_time="10:00:00" /><leg mode="car" /><act type="h" x="-14449140.962900195" y="3989064.249113051" start_time="10:00:00" end_time="18:00:00" /></plan></person><person id="32"><plan selected="yes"><act type="h" x="-14444855.974714179" y="3986378.383425709" end_time="10:00:00" /><leg mode="car" /><act type="h" x="-14443877.766322173" y="3986263.9541828227" start_time="10:00:00" end_time="18:00:00" /></plan></person><person id="33"><plan selected="yes"><act type="h" x="-14444115.33258127" y="3989956.925936128" end_time="10:00:00" /><leg mode="car" /><act type="h" x="-14445044.377617432" y="3988770.1740852003" start_time="10:00:00" end_time="18:00:00" /></plan></person><person id="34"><plan selected="yes"><act type="h" x="-14441683.15151139" y="3986415.2338355253" end_time="10:00:00" /><leg mode="car" /><act type="h" x="-14445583.79787711" y="3989559.135549619" start_time="10:00:00" end_time="18:00:00" /></plan></person><person id="35"><plan selected="yes"><act type="h" x="-14441413.20741133" y="3989917.3590412945" end_time="10:00:00" /><leg mode="car" /><act type="h" x="-14445014.177791033" y="3986292.3045692714" start_time="10:00:00" end_time="18:00:00" /></plan></person><person id="36"><plan selected="yes"><act type="h" x="-14444499.799499985" y="3986292.932669402" end_time="10:00:00" /><leg mode="car" /><act type="h" x="-14443827.024897322" y="3986325.597789718" start_time="10:00:00" end_time="18:00:00" /></plan></person><person id="37"><plan selected="yes"><act type="h" x="-14448889.863914238" y="3986265.4988830527" end_time="10:00:00" /><leg mode="car" /><act type="h" x="-14444201.972076353" y="3986287.0687713907" start_time="10:00:00" end_time="18:00:00" /></plan></person><person id="38"><plan selected="yes"><act type="h" x="-14445394.000445683" y="3986360.880150347" end_time="11:00:00" /><leg mode="car" /><act type="h" x="-14440471.134596875" y="3986506.150785873" start_time="11:00:00" end_time="19:00:00" /></plan></person><person id="39"><plan selected="yes"><act type="h" x="-14445374.396256205" y="3986180.7230724418" end_time="11:00:00" /><leg mode="car" /><act type="h" x="-14444167.500922507" y="3990109.9734909036" start_time="11:00:00" end_time="19:00:00" /></plan></person><person id="40"><plan selected="yes"><act type="h" x="-14443348.9000433" y="3989989.896254567" end_time="11:00:00" /><leg mode="car" /><act type="h" x="-14445291.981041685" y="3986478.585227282" start_time="11:00:00" end_time="19:00:00" /></plan></person><person id="41"><plan selected="yes"><act type="h" x="-14444406.048881015" y="3986291.4571342194" end_time="11:00:00" /><leg mode="car" /><act type="h" x="-14445394.780061036" y="3986187.6370845092" start_time="11:00:00" end_time="19:00:00" /></plan></person><person id="42"><plan selected="yes"><act type="h" x="-14444114.073447702" y="3989957.088394899" end_time="12:00:00" /><leg mode="car" /><act type="h" x="-14445031.556918032" y="3987706.1763069164" start_time="12:00:00" end_time="20:00:00" /></plan></person><person id="43"><plan selected="yes"><act type="h" x="-14449185.173488466" y="3989626.092566794" end_time="12:00:00" /><leg mode="car" /><act type="h" x="-14445447.330553694" y="3986249.3978769663" start_time="12:00:00" end_time="20:00:00" /></plan></person><person id="44"><plan selected="yes"><act type="h" x="-14448918.415288603" y="3986205.864043307" end_time="12:00:00" /><leg mode="car" /><act type="h" x="-14443109.859621732" y="3986333.0678458093" start_time="12:00:00" end_time="20:00:00" /></plan></person><person id="45"><plan selected="yes"><act type="h" x="-14440216.034881715" y="3986672.767642645" end_time="12:00:00" /><leg mode="car" /><act type="h" x="-14441422.273040649" y="3986453.7833724776" start_time="12:00:00" end_time="20:00:00" /></plan></person><person id="46"><plan selected="yes"><act type="h" x="-14449105.077567775" y="3988304.525576071" end_time="12:00:00" /><leg mode="car" /><act type="h" x="-14443831.75523003" y="3986247.226028675" start_time="12:00:00" end_time="20:00:00" /></plan></person><person id="47"><plan selected="yes"><act type="h" x="-14444164.897993157" y="3990110.659305775" end_time="12:00:00" /><leg mode="car" /><act type="h" x="-14441519.896000888" y="3989519.0067093153" start_time="12:00:00" end_time="20:00:00" /></plan></person><person id="48"><plan selected="yes"><act type="h" x="-14449339.75627862" y="3989606.568749988" end_time="13:00:00" /><leg mode="car" /><act type="h" x="-14445627.392643292" y="3986364.0017215908" start_time="13:00:00" end_time="21:00:00" /></plan></person><person id="49"><plan selected="yes"><act type="h" x="-14445059.681919217" y="3987238.8206480313" end_time="13:00:00" /><leg mode="car" /><act type="h" x="-14449339.851849554" y="3987175.7319441317" start_time="13:00:00" end_time="21:00:00" /></plan></person><person id="50"><plan selected="yes"><act type="h" x="-14445087.090504313" y="3987677.741410865" end_time="13:00:00" /><leg mode="car" /><act type="h" x="-14446062.53515816" y="3986322.5810047416" start_time="13:00:00" end_time="21:00:00" /></plan></person><person id="51"><plan selected="yes"><act type="h" x="-14440459.139919423" y="3988464.4299063836" end_time="13:00:00" /><leg mode="car" /><act type="h" x="-14446927.851704825" y="3986388.2881172434" start_time="13:00:00" end_time="21:00:00" /></plan></person><person id="52"><plan selected="yes"><act type="h" x="-14441097.225169972" y="3989074.783402205" end_time="13:00:00" /><leg mode="car" /><act type="h" x="-14446409.33277717" y="3986341.5235838857" start_time="13:00:00" end_time="21:00:00" /></plan></person><person id="53"><plan selected="yes"><act type="h" x="-14448908.96127783" y="3986263.0485642008" end_time="13:00:00" /><leg mode="car" /><act type="h" x="-14443822.321458252" y="3986246.7969094855" start_time="13:00:00" end_time="21:00:00" /></plan></person><person id="54"><plan selected="yes"><act type="h" x="-14449234.372111678" y="3989601.4175414722" end_time="14:00:00" /><leg mode="car" /><act type="h" x="-14446907.040771369" y="3989732.6185998404" start_time="14:00:00" end_time="22:00:00" /></plan></person><person id="55"><plan selected="yes"><act type="h" x="-14447518.370137304" y="3986290.2474261215" end_time="14:00:00" /><leg mode="car" /><act type="h" x="-14440213.533402521" y="3986682.441474492" start_time="14:00:00" end_time="22:00:00" /></plan></person><person id="56"><plan selected="yes"><act type="h" x="-14445068.464382889" y="3987682.834455344" end_time="14:00:00" /><leg mode="car" /><act type="h" x="-14449136.515371328" y="3989431.808689249" start_time="14:00:00" end_time="22:00:00" /></plan></person><person id="57"><plan selected="yes"><act type="h" x="-14443279.955676056" y="3986347.5431288467" end_time="14:00:00" /><leg mode="car" /><act type="h" x="-14444264.564618392" y="3990077.612930026" start_time="14:00:00" end_time="22:00:00" /></plan></person><person id="58"><plan selected="yes"><act type="h" x="-14441451.769741397" y="3989443.9468344846" end_time="14:00:00" /><leg mode="car" /><act type="h" x="-14448703.621917306" y="3989519.105130611" start_time="14:00:00" end_time="22:00:00" /></plan></person><person id="59"><plan selected="yes"><act type="h" x="-14443951.69767412" y="3986309.8640070944" end_time="15:00:00" /><leg mode="car" /><act type="h" x="-14445709.66703876" y="3986342.7271814793" start_time="15:00:00" end_time="23:00:00" /></plan></person><person id="60"><plan selected="yes"><act type="h" x="-14445104.087943653" y="3987456.3156256354" end_time="15:00:00" /><leg mode="car" /><act type="h" x="-14444453.493608695" y="3986260.282363134" start_time="15:00:00" end_time="23:00:00" /></plan></person><person id="61"><plan selected="yes"><act type="h" x="-14445674.192253534" y="3989907.0817399514" end_time="15:00:00" /><leg mode="car" /><act type="h" x="-14448845.30012191" y="3986068.9035224686" start_time="15:00:00" end_time="23:00:00" /></plan></person><person id="62"><plan selected="yes"><act type="h" x="-14440912.273570178" y="3988707.806682613" end_time="16:00:00" /><leg mode="car" /><act type="h" x="-14448861.859784042" y="3986256.626100776" start_time="16:00:00" end_time="00:00:00" /></plan></person><person id="63"><plan selected="yes"><act type="h" x="-14443730.41638827" y="3986353.0512600453" end_time="16:00:00" /><leg mode="car" /><act type="h" x="-14443544.594338514" y="3986340.8296713457" start_time="16:00:00" end_time="00:00:00" /></plan></person><person id="64"><plan selected="yes"><act type="h" x="-14443812.101785475" y="3986247.3931872025" end_time="16:00:00" /><leg mode="car" /><act type="h" x="-14440728.23573781" y="3988635.5800654567" start_time="16:00:00" end_time="00:00:00" /></plan></person><person id="65"><plan selected="yes"><act type="h" x="-14445087.090504313" y="3987677.741410865" end_time="16:00:00" /><leg mode="car" /><act type="h" x="-14448913.134488713" y="3986245.79741968" start_time="16:00:00" end_time="00:00:00" /></plan></person><person id="66"><plan selected="yes"><act type="h" x="-14446705.62360339" y="3986335.5417001075" end_time="17:00:00" /><leg mode="car" /><act type="h" x="-14448881.297817985" y="3986234.6550347814" start_time="17:00:00" end_time="01:00:00" /></plan></person><person id="67"><plan selected="yes"><act type="h" x="-14444995.433361873" y="3986326.167766463" end_time="17:00:00" /><leg mode="car" /><act type="h" x="-14449198.730584597" y="3986898.7972059506" start_time="17:00:00" end_time="01:00:00" /></plan></person><person id="68"><plan selected="yes"><act type="h" x="-14445068.392488787" y="3988739.6664446634" end_time="17:00:00" /><leg mode="car" /><act type="h" x="-14448882.07614378" y="3986097.6565157655" start_time="17:00:00" end_time="01:00:00" /></plan></person><person id="69"><plan selected="yes"><act type="h" x="-14441556.182239216" y="3986415.1607685243" end_time="17:00:00" /><leg mode="car" /><act type="h" x="-14445104.144046567" y="3987654.7567130593" start_time="17:00:00" end_time="01:00:00" /></plan></person><person id="70"><plan selected="yes"><act type="h" x="-14448561.239938812" y="3986139.534653083" end_time="17:00:00" /><leg mode="car" /><act type="h" x="-14449394.486395203" y="3987492.331963184" start_time="17:00:00" end_time="01:00:00" /></plan></person><person id="71"><plan selected="yes"><act type="h" x="-14445150.6596929" y="3986685.486675677" end_time="17:00:00" /><leg mode="car" /><act type="h" x="-14445116.575884348" y="3987835.19829417" start_time="17:00:00" end_time="01:00:00" /></plan></person><person id="72"><plan selected="yes"><act type="h" x="-14445057.88742822" y="3987677.308795149" end_time="17:00:00" /><leg mode="car" /><act type="h" x="-14444524.506040594" y="3989926.9112896495" start_time="17:00:00" end_time="01:00:00" /></plan></person><person id="73"><plan selected="yes"><act type="h" x="-14448641.469326805" y="3989544.625520795" end_time="17:00:00" /><leg mode="car" /><act type="h" x="-14446436.518454231" y="3989754.82612437" start_time="17:00:00" end_time="01:00:00" /></plan></person><person id="74"><plan selected="yes"><act type="h" x="-14447109.747850537" y="3986291.5661378643" end_time="18:00:00" /><leg mode="car" /><act type="h" x="-14441607.85173498" y="3989787.1937011424" start_time="18:00:00" end_time="02:00:00" /></plan></person><person id="75"><plan selected="yes"><act type="h" x="-14440447.796573298" y="3988335.2119303555" end_time="18:00:00" /><leg mode="car" /><act type="h" x="-14441413.20741133" y="3989917.3590412945" start_time="18:00:00" end_time="02:00:00" /></plan></person><person id="76"><plan selected="yes"><act type="h" x="-14448904.67727334" y="3989728.8761565457" end_time="18:00:00" /><leg mode="car" /><act type="h" x="-14448889.691621803" y="3986077.799691454" start_time="18:00:00" end_time="02:00:00" /></plan></person><person id="77"><plan selected="yes"><act type="h" x="-14446600.498498432" y="3986367.4106409657" end_time="18:00:00" /><leg mode="car" /><act type="h" x="-14441731.823546702" y="3989958.755069228" start_time="18:00:00" end_time="02:00:00" /></plan></person><person id="78"><plan selected="yes"><act type="h" x="-14445993.748752568" y="3989825.0717073055" end_time="18:00:00" /><leg mode="car" /><act type="h" x="-14449019.222464731" y="3986549.2066739583" start_time="18:00:00" end_time="02:00:00" /></plan></person><person id="79"><plan selected="yes"><act type="h" x="-14444094.560825154" y="3986297.877405908" end_time="18:00:00" /><leg mode="car" /><act type="h" x="-14440425.5653243" y="3986660.1001156885" start_time="18:00:00" end_time="02:00:00" /></plan></person><person id="80"><plan selected="yes"><act type="h" x="-14441572.6964205" y="3989621.3036574726" end_time="18:00:00" /><leg mode="car" /><act type="h" x="-14441414.161848854" y="3989531.404914246" start_time="18:00:00" end_time="02:00:00" /></plan></person><person id="81"><plan selected="yes"><act type="h" x="-14445993.748752568" y="3989825.0717073055" end_time="18:00:00" /><leg mode="car" /><act type="h" x="-14441548.905695569" y="3989563.2391181546" start_time="18:00:00" end_time="02:00:00" /></plan></person><person id="82"><plan selected="yes"><act type="h" x="-14441354.894141307" y="3989523.0250925818" end_time="18:00:00" /><leg mode="car" /><act type="h" x="-14445025.94873375" y="3987637.240752347" start_time="18:00:00" end_time="02:00:00" /></plan></person><person id="83"><plan selected="yes"><act type="h" x="-14440297.291256154" y="3987150.548441337" end_time="19:00:00" /><leg mode="car" /><act type="h" x="-14445019.405134847" y="3986457.982025261" start_time="19:00:00" end_time="03:00:00" /></plan></person><person id="84"><plan selected="yes"><act type="h" x="-14449260.024306394" y="3987829.3879670757" end_time="19:00:00" /><leg mode="car" /><act type="h" x="-14445022.565978456" y="3987441.5749119665" start_time="19:00:00" end_time="03:00:00" /></plan></person><person id="85"><plan selected="yes"><act type="h" x="-14445196.458104083" y="3986185.852226458" end_time="19:00:00" /><leg mode="car" /><act type="h" x="-14440322.602535991" y="3987756.6407640115" start_time="19:00:00" end_time="03:00:00" /></plan></person><person id="86"><plan selected="yes"><act type="h" x="-14443795.309629168" y="3986350.956919285" end_time="19:00:00" /><leg mode="car" /><act type="h" x="-14449006.91568458" y="3986577.4383714646" start_time="19:00:00" end_time="03:00:00" /></plan></person><person id="87"><plan selected="yes"><act type="h" x="-14449375.243744638" y="3989720.099050841" end_time="19:00:00" /><leg mode="car" /><act type="h" x="-14441615.586275358" y="3986418.6411148817" start_time="19:00:00" end_time="03:00:00" /></plan></person><person id="88"><plan selected="yes"><act type="h" x="-14441462.169580815" y="3989587.7901480864" end_time="19:00:00" /><leg mode="car" /><act type="h" x="-14445048.007302608" y="3987690.9722061194" start_time="19:00:00" end_time="03:00:00" /></plan></person><person id="89"><plan selected="yes"><act type="h" x="-14448654.953159083" y="3986115.008970829" end_time="19:00:00" /><leg mode="car" /><act type="h" x="-14443675.182248523" y="3986335.881937778" start_time="19:00:00" end_time="03:00:00" /></plan></person><person id="90"><plan selected="yes"><act type="h" x="-14448908.96127783" y="3986263.0485642008" end_time="20:00:00" /><leg mode="car" /><act type="h" x="-14449080.332092015" y="3988308.0172052337" start_time="20:00:00" end_time="04:00:00" /></plan></person><person id="91"><plan selected="yes"><act type="h" x="-14448784.591385651" y="3989477.268076136" end_time="20:00:00" /><leg mode="car" /><act type="h" x="-14442345.513263492" y="3989973.2355362596" start_time="20:00:00" end_time="04:00:00" /></plan></person><person id="92"><plan selected="yes"><act type="h" x="-14443082.77218011" y="3989956.6545125055" end_time="20:00:00" /><leg mode="car" /><act type="h" x="-14441727.304337688" y="3986389.238225139" start_time="20:00:00" end_time="04:00:00" /></plan></person><person id="93"><plan selected="yes"><act type="h" x="-14443904.833785465" y="3986282.143753306" end_time="20:00:00" /><leg mode="car" /><act type="h" x="-14445118.13130172" y="3987782.1379111046" start_time="20:00:00" end_time="04:00:00" /></plan></person><person id="94"><plan selected="yes"><act type="h" x="-14444541.531460414" y="3990012.151431845" end_time="20:00:00" /><leg mode="car" /><act type="h" x="-14449029.945924068" y="3986571.7312096995" start_time="20:00:00" end_time="04:00:00" /></plan></person><person id="95"><plan selected="yes"><act type="h" x="-14445068.392488787" y="3988739.6664446634" end_time="20:00:00" /><leg mode="car" /><act type="h" x="-14449348.979306584" y="3987198.0799915334" start_time="20:00:00" end_time="04:00:00" /></plan></person><person id="96"><plan selected="yes"><act type="h" x="-14440214.538866138" y="3986677.9305286077" end_time="21:00:00" /><leg mode="car" /><act type="h" x="-14445090.269127673" y="3987665.1812266884" start_time="21:00:00" end_time="05:00:00" /></plan></person><person id="97"><plan selected="yes"><act type="h" x="-14445032.036736077" y="3987239.721500277" end_time="21:00:00" /><leg mode="car" /><act type="h" x="-14444772.851403378" y="3986280.0278985254" start_time="21:00:00" end_time="05:00:00" /></plan></person><person id="98"><plan selected="yes"><act type="h" x="-14449278.704727575" y="3987055.4582168823" end_time="21:00:00" /><leg mode="car" /><act type="h" x="-14449054.083237523" y="3989209.4965562895" start_time="21:00:00" end_time="05:00:00" /></plan></person><person id="99"><plan selected="yes"><act type="h" x="-14443889.103081249" y="3986273.4443087643" end_time="22:00:00" /><leg mode="car" /><act type="h" x="-14445592.087685008" y="3989895.0531878755" start_time="22:00:00" end_time="06:00:00" /></plan></person></plans>