<?xml version="1.0" ?>
<!DOCTYPE plans SYSTEM "http://www.matsim.org/files/dtd/plans_v4.dtd">
<plans xml:lang="de-CH"><person id="1"><plan selected="yes"><act type="h" x="-14436171.17117665" y="3978372.7793831816" end_time="09:00:00" /><leg mode="car" /><act type="w" x="-14474782.054448504" y="4075630.287203983" start_time="09:00:00" end_time="18:00:00" /><leg mode="car" /><act type="h" x="-14436171.17117665" y="3978372.7793831816" /></plan></person><person id="2"><plan selected="yes"><act type="h" x="-14441888.398902377" y="3996437.5811447673" end_time="09:00:00" /><leg mode="car" /><act type="w" x="-14451062.217150018" y="4018202.3605552004" start_time="09:00:00" end_time="18:00:00" /><leg mode="car" /><act type="h" x="-14441888.398902377" y="3996437.5811447673" /></plan></person><person id="3"><plan selected="yes"><act type="h" x="-14447565.493164707" y="4011358.6784904916" end_time="09:00:00" /><leg mode="car" /><act type="w" x="-14412085.237581152" y="3949391.2012529382" start_time="09:00:00" end_time="18:00:00" /><leg mode="car" /><act type="h" x="-14447565.493164707" y="4011358.6784904916" /></plan></person><person id="4"><plan selected="yes"><act type="h" x="-14438798.514287358" y="3971842.314930401" end_time="09:00:00" /><leg mode="car" /><act type="w" x="-14397297.645704227" y="3989434.222946149" start_time="09:00:00" end_time="18:00:00" /><leg mode="car" /><act type="h" x="-14438798.514287358" y="3971842.314930401" /></plan></person><person id="5"><plan selected="yes"><act type="h" x="-14456665.989663582" y="3989696.6775663034" end_time="09:00:00" /><leg mode="car" /><act type="w" x="-14449756.759927792" y="4017015.6102012172" start_time="09:00:00" end_time="18:00:00" /><leg mode="car" /><act type="h" x="-14456665.989663582" y="3989696.6775663034" /></plan></person><person id="6"><plan selected="yes"><act type="h" x="-14454061.418672347" y="4014780.534702077" end_time="09:00:00" /><leg mode="car" /><act type="w" x="-14428868.54713923" y="3985715.969824868" start_time="09:00:00" end_time="18:00:00" /><leg mode="car" /><act type="h" x="-14454061.418672347" y="4014780.534702077" /></plan></person><person id="7"><plan selected="yes"><act type="h" x="-14441519.896000888" y="3989519.0067093153" end_time="09:00:00" /><leg mode="car" /><act type="w" x="-14447852.459091315" y="4015493.54154317" start_time="09:00:00" end_time="18:00:00" /><leg mode="car" /><act type="h" x="-14441519.896000888" y="3989519.0067093153" /></plan></person><person id="8"><plan selected="yes"><act type="h" x="-14384275.909203043" y="3924657.7595803677" end_time="09:00:00" /><leg mode="car" /><act type="w" x="-14442644.264634343" y="4016430.514474433" start_time="09:00:00" end_time="18:00:00" /><leg mode="car" /><act type="h" x="-14384275.909203043" y="3924657.7595803677" /></plan></person><person id="9"><plan selected="yes"><act type="h" x="-14410103.73836845" y="3937985.251526604" end_time="09:00:00" /><leg mode="car" /><act type="w" x="-14457018.149424046" y="3989609.9952469408" start_time="09:00:00" end_time="18:00:00" /><leg mode="car" /><act type="h" x="-14410103.73836845" y="3937985.251526604" /></plan></person><person id="10"><plan selected="yes"><act type="h" x="-14409041.049786853" y="3934152.036004115" end_time="09:00:00" /><leg mode="car" /><act type="w" x="-14464865.470201755" y="4064888.438002112" start_time="09:00:00" end_time="18:00:00" /><leg mode="car" /><act type="h" x="-14409041.049786853" y="3934152.036004115" /></plan></person><person id="11"><plan selected="yes"><act type="h" x="-14457578.99091901" y="4040377.148256784" end_time="09:00:00" /><leg mode="car" /><act type="w" x="-14438181.579039644" y="3970379.5122760814" start_time="09:00:00" end_time="18:00:00" /><leg mode="car" /><act type="h" x="-14457578.99091901" y="4040377.148256784" /></plan></person><person id="12"><plan selected="yes"><act type="h" x="-14469218.079379357" y="3987081.614567437" end_time="09:00:00" /><leg mode="car" /><act type="w" x="-14455353.50008482" y="4015017.248080377" start_time="09:00:00" end_time="18:00:00" /><leg mode="car" /><act type="h" x="-14469218.079379357" y="3987081.614567437" /></plan></person><person id="13"><plan selected="yes"><act type="h" x="-14429711.150024733" y="3979684.8842933686" end_time="09:00:00" /><leg mode="car" /><act type="w" x="-14445549.844723076" y="3994175.161680222" start_time="09:00:00" end_time="18:00:00" /><leg mode="car" /><act type="h" x="-14429711.150024733" y="3979684.8842933686" /></plan></person><person id="14"><plan selected="yes"><act type="h" x="-14439481.546437046" y="3977760.0327397785" end_time="09:00:00" /><leg mode="car" /><act type="w" x="-14439678.277926438" y="3980270.0711527765" start_time="09:00:00" end_time="18:00:00" /><leg mode="car" /><act type="h" x="-14439481.546437046" y="3977760.0327397785" /></plan></person><person id="15"><plan selected="yes"><act type="h" x="-14429926.483337281" y="3986057.6905774567" end_time="09:00:00" /><leg mode="car" /><act type="w" x="-14370012.515498355" y="3953107.0159319476" start_time="09:00:00" end_time="18:00:00" /><leg mode="car" /><act type="h" x="-14429926.483337281" y="3986057.6905774567" /></plan></person><person id="16"><plan selected="yes"><act type="h" x="-14460000.64016579" y="3984813.2435407764" end_time="09:00:00" /><leg mode="car" /><act type="w" x="-14446413.625635011" y="4014051.694303465" start_time="09:00:00" end_time="18:00:00" /><leg mode="car" /><act type="h" x="-14460000.64016579" y="3984813.2435407764" /></plan></person><person id="17"><plan selected="yes"><act type="h" x="-14454183.209196988" y="4014765.8929677214" end_time="09:00:00" /><leg mode="car" /><act type="w" x="-14392733.439622607" y="3995419.1483371234" start_time="09:00:00" end_time="18:00:00" /><leg mode="car" /><act type="h" x="-14454183.209196988" y="4014765.8929677214" /></plan></person><person id="18"><plan selected="yes"><act type="h" x="-14387621.614618067" y="3924366.3303667507" end_time="09:00:00" /><leg mode="car" /><act type="w" x="-14452465.05545993" y="4028422.1684114565" start_time="09:00:00" end_time="18:00:00" /><leg mode="car" /><act type="h" x="-14387621.614618067" y="3924366.3303667507" /></plan></person><person id="19"><plan selected="yes"><act type="h" x="-14411294.040951286" y="3952129.980398657" end_time="09:00:00" /><leg mode="car" /><act type="w" x="-14428788.03408824" y="3983777.807553604" start_time="09:00:00" end_time="18:00:00" /><leg mode="car" /><act type="h" x="-14411294.040951286" y="3952129.980398657" /></plan></person><person id="20"><plan selected="yes"><act type="h" x="-14440078.43546947" y="3986039.182351665" end_time="09:00:00" /><leg mode="car" /><act type="w" x="-14443219.603134234" y="3996123.6293213014" start_time="09:00:00" end_time="18:00:00" /><leg mode="car" /><act type="h" x="-14440078.43546947" y="3986039.182351665" /></plan></person><person id="21"><plan selected="yes"><act type="h" x="-14439816.39499918" y="4002740.039821959" end_time="09:00:00" /><leg mode="car" /><act type="w" x="-14447435.864067428" y="3978732.3772964557" start_time="09:00:00" end_time="18:00:00" /><leg mode="car" /><act type="h" x="-14439816.39499918" y="4002740.039821959" /></plan></person><person id="22"><plan selected="yes"><act type="h" x="-14451243.53342203" y="4018260.1421379275" end_time="09:00:00" /><leg mode="car" /><act type="w" x="-14478010.25860321" y="3981632.376549029" start_time="09:00:00" end_time="18:00:00" /><leg mode="car" /><act type="h" x="-14451243.53342203" y="4018260.1421379275" /></plan></person><person id="23"><plan selected="yes"><act type="h" x="-14447174.355567368" y="3972759.1192334746" end_time="09:00:00" /><leg mode="car" /><act type="w" x="-14459178.066029407" y="4046422.939079728" start_time="09:00:00" end_time="18:00:00" /><leg mode="car" /><act type="h" x="-14447174.355567368" y="3972759.1192334746" /></plan></person><person id="24"><plan selected="yes"><act type="h" x="-14443494.646522518" y="3986294.678115356" end_time="09:00:00" /><leg mode="car" /><act type="w" x="-14440415.03047183" y="3986040.921536836" start_time="09:00:00" end_time="18:00:00" /><leg mode="car" /><act type="h" x="-14443494.646522518" y="3986294.678115356" /></plan></person><person id="25"><plan selected="yes"><act type="h" x="-14447403.653312745" y="3978376.090781666" end_time="09:00:00" /><leg mode="car" /><act type="w" x="-14411879.611148225" y="3945226.1816268694" start_time="09:00:00" end_time="18:00:00" /><leg mode="car" /><act type="h" x="-14447403.653312745" y="3978376.090781666" /></plan></person><person id="26"><plan selected="yes"><act type="h" x="-14442053.893686913" y="3994950.46098308" end_time="09:00:00" /><leg mode="car" /><act type="w" x="-14419346.267258631" y="3950903.1304460266" start_time="09:00:00" end_time="18:00:00" /><leg mode="car" /><act type="h" x="-14442053.893686913" y="3994950.46098308" /></plan></person><person id="27"><plan selected="yes"><act type="h" x="-14448863.766954325" y="3989422.808924491" end_time="09:00:00" /><leg mode="car" /><act type="w" x="-14457600.91248524" y="3989616.183987853" start_time="09:00:00" end_time="18:00:00" /><leg mode="car" /><act type="h" x="-14448863.766954325" y="3989422.808924491" /></plan></person><person id="28"><plan selected="yes"><act type="h" x="-14430619.47590846" y="3986223.207971301" end_time="09:00:00" /><leg mode="car" /><act type="w" x="-14447909.7371558" y="4015547.43446553" start_time="09:00:00" end_time="18:00:00" /><leg mode="car" /><act type="h" x="-14430619.47590846" y="3986223.207971301" /></plan></person><person id="29"><plan selected="yes"><act type="h" x="-14416376.336738268" y="3989495.5882910425" end_time="09:00:00" /><leg mode="car" /><act type="w" x="-14444973.492126495" y="4022809.8748037564" start_time="09:00:00" end_time="18:00:00" /><leg mode="car" /><act type="h" x="-14416376.336738268" y="3989495.5882910425" /></plan></person><person id="30"><plan selected="yes"><act type="h" x="-14438200.47980037" y="4075966.177705035" end_time="09:00:00" /><leg mode="car" /><act type="w" x="-14437851.09378042" y="3968640.777533009" start_time="09:00:00" end_time="18:00:00" /><leg mode="car" /><act type="h" x="-14438200.47980037" y="4075966.177705035" /></plan></person><person id="31"><plan selected="yes"><act type="h" x="-14428690.803115748" y="3984567.2327507567" end_time="09:00:00" /><leg mode="car" /><act type="w" x="-14441256.327631343" y="3991608.289850276" start_time="09:00:00" end_time="18:00:00" /><leg mode="car" /><act type="h" x="-14428690.803115748" y="3984567.2327507567" /></plan></person><person id="32"><plan selected="yes"><act type="h" x="-14429792.023420773" y="3986143.1026297365" end_time="09:00:00" /><leg mode="car" /><act type="w" x="-14452729.656375855" y="3973298.536567333" start_time="09:00:00" end_time="18:00:00" /><leg mode="car" /><act type="h" x="-14429792.023420773" y="3986143.1026297365" /></plan></person><person id="33"><plan selected="yes"><act type="h" x="-14442207.949791916" y="4013079.688976102" end_time="09:00:00" /><leg mode="car" /><act type="w" x="-14398045.644428791" y="4014815.9210345848" start_time="09:00:00" end_time="18:00:00" /><leg mode="car" /><act type="h" x="-14442207.949791916" y="4013079.688976102" /></plan></person><person id="34"><plan selected="yes"><act type="h" x="-14445199.282353781" y="3983797.528781578" end_time="09:00:00" /><leg mode="car" /><act type="w" x="-14440434.964594383" y="3986163.3663668274" start_time="09:00:00" end_time="18:00:00" /><leg mode="car" /><act type="h" x="-14445199.282353781" y="3983797.528781578" /></plan></person><person id="35"><plan selected="yes"><act type="h" x="-14459968.43469989" y="4047790.9141185936" end_time="09:00:00" /><leg mode="car" /><act type="w" x="-14439876.94387292" y="3976595.3352052034" start_time="09:00:00" end_time="18:00:00" /><leg mode="car" /><act type="h" x="-14459968.43469989" y="4047790.9141185936" /></plan></person><person id="36"><plan selected="yes"><act type="h" x="-14438204.513886355" y="4074177.9598254496" end_time="09:00:00" /><leg mode="car" /><act type="w" x="-14411841.0479783" y="3947484.6826030947" start_time="09:00:00" end_time="18:00:00" /><leg mode="car" /><act type="h" x="-14438204.513886355" y="4074177.9598254496" /></plan></person><person id="37"><plan selected="yes"><act type="h" x="-14439756.977590146" y="3982070.5362231624" end_time="09:00:00" /><leg mode="car" /><act type="w" x="-14453943.666406052" y="4053796.883064594" start_time="09:00:00" end_time="18:00:00" /><leg mode="car" /><act type="h" x="-14439756.977590146" y="3982070.5362231624" /></plan></person><person id="38"><plan selected="yes"><act type="h" x="-14439530.759857476" y="3975544.6010017334" end_time="09:00:00" /><leg mode="car" /><act type="w" x="-14356067.869667273" y="3947359.2025471693" start_time="09:00:00" end_time="18:00:00" /><leg mode="car" /><act type="h" x="-14439530.759857476" y="3975544.6010017334" /></plan></person><person id="39"><plan selected="yes"><act type="h" x="-14433923.745593628" y="3986446.6499771783" end_time="09:00:00" /><leg mode="car" /><act type="w" x="-14451084.574369209" y="4018266.5865377495" start_time="09:00:00" end_time="18:00:00" /><leg mode="car" /><act type="h" x="-14433923.745593628" y="3986446.6499771783" /></plan></person><person id="40"><plan selected="yes"><act type="h" x="-14438644.9528754" y="3971732.361384794" end_time="09:00:00" /><leg mode="car" /><act type="w" x="-14447507.509850686" y="3966987.9138445123" start_time="09:00:00" end_time="18:00:00" /><leg mode="car" /><act type="h" x="-14438644.9528754" y="3971732.361384794" /></plan></person><person id="41"><plan selected="yes"><act type="h" x="-14366580.826930106" y="3922058.3396254177" end_time="09:00:00" /><leg mode="car" /><act type="w" x="-14445050.272495426" y="4008905.5060827993" start_time="09:00:00" end_time="18:00:00" /><leg mode="car" /><act type="h" x="-14366580.826930106" y="3922058.3396254177" /></plan></person><person id="42"><plan selected="yes"><act type="h" x="-14448889.691621803" y="3986077.799691454" end_time="09:00:00" /><leg mode="car" /><act type="w" x="-14410057.03376696" y="3935674.488316986" start_time="09:00:00" end_time="18:00:00" /><leg mode="car" /><act type="h" x="-14448889.691621803" y="3986077.799691454" /></plan></person><person id="43"><plan selected="yes"><act type="h" x="-14459529.759649947" y="4016405.1779402974" end_time="09:00:00" /><leg mode="car" /><act type="w" x="-14445155.240319788" y="3989938.1643727757" start_time="09:00:00" end_time="18:00:00" /><leg mode="car" /><act type="h" x="-14459529.759649947" y="4016405.1779402974" /></plan></person><person id="44"><plan selected="yes"><act type="h" x="-14440195.635636985" y="3985969.650338962" end_time="09:00:00" /><leg mode="car" /><act type="w" x="-14445114.33019229" y="3981841.659737843" start_time="09:00:00" end_time="18:00:00" /><leg mode="car" /><act type="h" x="-14440195.635636985" y="3985969.650338962" /></plan></person><person id="45"><plan selected="yes"><act type="h" x="-14429774.964580547" y="3979343.3245000676" end_time="09:00:00" /><leg mode="car" /><act type="w" x="-14401905.384725226" y="3929769.806666917" start_time="09:00:00" end_time="18:00:00" /><leg mode="car" /><act type="h" x="-14429774.964580547" y="3979343.3245000676" /></plan></person><person id="46"><plan selected="yes"><act type="h" x="-14387389.100366676" y="3969601.724761108" end_time="09:00:00" /><leg mode="car" /><act type="w" x="-14411897.377184846" y="3947277.603331704" start_time="09:00:00" end_time="18:00:00" /><leg mode="car" /><act type="h" x="-14387389.100366676" y="3969601.724761108" /></plan></person><person id="47"><plan selected="yes"><act type="h" x="-14450803.446913835" y="4054329.4348392934" end_time="09:00:00" /><leg mode="car" /><act type="w" x="-14456833.848477032" y="3985065.616947113" start_time="09:00:00" end_time="18:00:00" /><leg mode="car" /><act type="h" x="-14450803.446913835" y="4054329.4348392934" /></plan></person><person id="48"><plan selected="yes"><act type="h" x="-14365436.335925186" y="3921928.587698658" end_time="09:00:00" /><leg mode="car" /><act type="w" x="-14453428.295052236" y="3985845.8026529" start_time="09:00:00" end_time="18:00:00" /><leg mode="car" /><act type="h" x="-14365436.335925186" y="3921928.587698658" /></plan></person><person id="49"><plan selected="yes"><act type="h" x="-14397876.22572557" y="3960852.853704789" end_time="09:00:00" /><leg mode="car" /><act type="w" x="-14410167.811409926" y="3934943.1025364385" start_time="09:00:00" end_time="18:00:00" /><leg mode="car" /><act type="h" x="-14397876.22572557" y="3960852.853704789" /></plan></person><person id="50"><plan selected="yes"><act type="h" x="-14411934.400078103" y="3948169.4060754627" end_time="09:00:00" /><leg mode="car" /><act type="w" x="-14445486.283629065" y="3986344.4534373907" start_time="09:00:00" end_time="18:00:00" /><leg mode="car" /><act type="h" x="-14411934.400078103" y="3948169.4060754627" /></plan></person><person id="51"><plan selected="yes"><act type="h" x="-14437748.639564645" y="3965871.100014401" end_time="09:00:00" /><leg mode="car" /><act type="w" x="-14383631.991344212" y="3924571.042229299" start_time="09:00:00" end_time="18:00:00" /><leg mode="car" /><act type="h" x="-14437748.639564645" y="3965871.100014401" /></plan></person><person id="52"><plan selected="yes"><act type="h" x="-14382743.512111064" y="3924278.77768639" end_time="09:00:00" /><leg mode="car" /><act type="w" x="-14387577.062605895" y="3924363.5189433233" start_time="09:00:00" end_time="18:00:00" /><leg mode="car" /><act type="h" x="-14382743.512111064" y="3924278.77768639" /></plan></person><person id="53"><plan selected="yes"><act type="h" x="-14469332.124032618" y="3986927.449482932" end_time="09:00:00" /><leg mode="car" /><act type="w" x="-14439384.137334064" y="3966706.4250705447" start_time="09:00:00" end_time="18:00:00" /><leg mode="car" /><act type="h" x="-14469332.124032618" y="3986927.449482932" /></plan></person><person id="54"><plan selected="yes"><act type="h" x="-14454836.5947889" y="4014943.0547189736" end_time="09:00:00" /><leg mode="car" /><act type="w" x="-14454608.652136749" y="4031483.7628337857" start_time="09:00:00" end_time="18:00:00" /><leg mode="car" /><act type="h" x="-14454836.5947889" y="4014943.0547189736" /></plan></person><person id="55"><plan selected="yes"><act type="h" x="-14469964.334017584" y="4069286.1097677043" end_time="09:00:00" /><leg mode="car" /><act type="w" x="-14439041.844137661" y="3974352.08796289" start_time="09:00:00" end_time="18:00:00" /><leg mode="car" /><act type="h" x="-14469964.334017584" y="4069286.1097677043" /></plan></person><person id="56"><plan selected="yes"><act type="h" x="-14452525.36015188" y="4014274.6570391734" end_time="09:00:00" /><leg mode="car" /><act type="w" x="-14415664.702225719" y="3945044.147785141" start_time="09:00:00" end_time="18:00:00" /><leg mode="car" /><act type="h" x="-14452525.36015188" y="4014274.6570391734" /></plan></person><person id="57"><plan selected="yes"><act type="h" x="-14438825.232345626" y="3971899.8538172394" end_time="09:00:00" /><leg mode="car" /><act type="w" x="-14440353.984839043" y="3999234.4189623026" start_time="09:00:00" end_time="18:00:00" /><leg mode="car" /><act type="h" x="-14438825.232345626" y="3971899.8538172394" /></plan></person><person id="58"><plan selected="yes"><act type="h" x="-14474072.197455306" y="4078050.8750393232" end_time="09:00:00" /><leg mode="car" /><act type="w" x="-14423095.574218009" y="3953600.88329099" start_time="09:00:00" end_time="18:00:00" /><leg mode="car" /><act type="h" x="-14474072.197455306" y="4078050.8750393232" /></plan></person><person id="59"><plan selected="yes"><act type="h" x="-14462486.148024363" y="4061480.0103248805" end_time="09:00:00" /><leg mode="car" /><act type="w" x="-14411869.736455586" y="3945225.411200608" start_time="09:00:00" end_time="18:00:00" /><leg mode="car" /><act type="h" x="-14462486.148024363" y="4061480.0103248805" /></plan></person><person id="60"><plan selected="yes"><act type="h" x="-14441598.415073987" y="3986412.4298862624" end_time="09:00:00" /><leg mode="car" /><act type="w" x="-14387428.052298706" y="3970539.248968116" start_time="09:00:00" end_time="18:00:00" /><leg mode="car" /><act type="h" x="-14441598.415073987" y="3986412.4298862624" /></plan></person><person id="61"><plan selected="yes"><act type="h" x="-14454925.752585247" y="4021055.53342206" end_time="09:00:00" /><leg mode="car" /><act type="w" x="-14411940.123328594" y="3951302.928160794" start_time="09:00:00" end_time="18:00:00" /><leg mode="car" /><act type="h" x="-14454925.752585247" y="4021055.53342206" /></plan></person><person id="62"><plan selected="yes"><act type="h" x="-14471047.18456406" y="3984948.996164797" end_time="09:00:00" /><leg mode="car" /><act type="w" x="-14373823.887889843" y="3958647.533828569" start_time="09:00:00" end_time="18:00:00" /><leg mode="car" /><act type="h" x="-14471047.18456406" y="3984948.996164797" /></plan></person><person id="63"><plan selected="yes"><act type="h" x="-14469311.23410898" y="3986977.006510443" end_time="09:00:00" /><leg mode="car" /><act type="w" x="-14426724.242537217" y="3955281.0414188663" start_time="09:00:00" end_time="18:00:00" /><leg mode="car" /><act type="h" x="-14469311.23410898" y="3986977.006510443" /></plan></person><person id="64"><plan selected="yes"><act type="h" x="-14417867.610777693" y="3947231.882717151" end_time="09:00:00" /><leg mode="car" /><act type="w" x="-14430709.030225998" y="3956699.292898912" start_time="09:00:00" end_time="18:00:00" /><leg mode="car" /><act type="h" x="-14417867.610777693" y="3947231.882717151" /></plan></person><person id="65"><plan selected="yes"><act type="h" x="-14373077.157833606" y="3957892.90657799" end_time="09:00:00" /><leg mode="car" /><act type="w" x="-14452749.324815525" y="3974718.1451532547" start_time="09:00:00" end_time="18:00:00" /><leg mode="car" /><act type="h" x="-14373077.157833606" y="3957892.90657799" /></plan></person><person id="66"><plan selected="yes"><act type="h" x="-14441384.719461128" y="4009743.963621328" end_time="09:00:00" /><leg mode="car" /><act type="w" x="-14439849.953548994" y="3966337.932552121" start_time="09:00:00" end_time="18:00:00" /><leg mode="car" /><act type="h" x="-14441384.719461128" y="4009743.963621328" /></plan></person><person id="67"><plan selected="yes"><act type="h" x="-14447443.048015678" y="3966870.534048082" end_time="09:00:00" /><leg mode="car" /><act type="w" x="-14419964.727224547" y="3989921.3891649563" start_time="09:00:00" end_time="18:00:00" /><leg mode="car" /><act type="h" x="-14447443.048015678" y="3966870.534048082" /></plan></person><person id="68"><plan selected="yes"><act type="h" x="-14439954.245617945" y="3978707.0436347537" end_time="09:00:00" /><leg mode="car" /><act type="w" x="-14411818.001110898" y="3951572.747214675" start_time="09:00:00" end_time="18:00:00" /><leg mode="car" /><act type="h" x="-14439954.245617945" y="3978707.0436347537" /></plan></person><person id="69"><plan selected="yes"><act type="h" x="-14464660.579893446" y="4078951.798067368" end_time="09:00:00" /><leg mode="car" /><act type="w" x="-14444907.866449058" y="4009670.3171458067" start_time="09:00:00" end_time="18:00:00" /><leg mode="car" /><act type="h" x="-14464660.579893446" y="4078951.798067368" /></plan></person><person id="70"><plan selected="yes"><act type="h" x="-14459111.744445205" y="4046103.8678055354" end_time="09:00:00" /><leg mode="car" /><act type="w" x="-14441177.087871784" y="3986485.8960892297" start_time="09:00:00" end_time="18:00:00" /><leg mode="car" /><act type="h" x="-14459111.744445205" y="4046103.8678055354" /></plan></person><person id="71"><plan selected="yes"><act type="h" x="-14426103.122841462" y="3987438.956802971" end_time="09:00:00" /><leg mode="car" /><act type="w" x="-14445421.448773572" y="3985624.6897690026" start_time="09:00:00" end_time="18:00:00" /><leg mode="car" /><act type="h" x="-14426103.122841462" y="3987438.956802971" /></plan></person><person id="72"><plan selected="yes"><act type="h" x="-14441211.560579188" y="3991266.7542316965" end_time="09:00:00" /><leg mode="car" /><act type="w" x="-14441522.37595555" y="3986388.3700957582" start_time="09:00:00" end_time="18:00:00" /><leg mode="car" /><act type="h" x="-14441211.560579188" y="3991266.7542316965" /></plan></person><person id="73"><plan selected="yes"><act type="h" x="-14416524.698977524" y="3989550.7781718834" end_time="09:00:00" /><leg mode="car" /><act type="w" x="-14412580.068549113" y="3942815.6850358425" start_time="09:00:00" end_time="18:00:00" /><leg mode="car" /><act type="h" x="-14416524.698977524" y="3989550.7781718834" /></plan></person><person id="74"><plan selected="yes"><act type="h" x="-14459743.40106815" y="4052783.1641862486" end_time="09:00:00" /><leg mode="car" /><act type="w" x="-14400762.482695268" y="3929149.1067654793" start_time="09:00:00" end_time="18:00:00" /><leg mode="car" /><act type="h" x="-14459743.40106815" y="4052783.1641862486" /></plan></person><person id="75"><plan selected="yes"><act type="h" x="-14444668.391965302" y="4011319.270615775" end_time="09:00:00" /><leg mode="car" /><act type="w" x="-14454919.911607534" y="4024523.2173142126" start_time="09:00:00" end_time="18:00:00" /><leg mode="car" /><act type="h" x="-14444668.391965302" y="4011319.270615775" /></plan></person><person id="76"><plan selected="yes"><act type="h" x="-14451074.504303437" y="4018220.8599588475" end_time="09:00:00" /><leg mode="car" /><act type="w" x="-14429792.023420773" y="3986143.1026297365" start_time="09:00:00" end_time="18:00:00" /><leg mode="car" /><act type="h" x="-14451074.504303437" y="4018220.8599588475" /></plan></person><person id="77"><plan selected="yes"><act type="h" x="-14439359.480208678" y="3974971.4546710467" end_time="09:00:00" /><leg mode="car" /><act type="w" x="-14447382.405493837" y="3978086.28792199" start_time="09:00:00" end_time="18:00:00" /><leg mode="car" /><act type="h" x="-14439359.480208678" y="3974971.4546710467" /></plan></person><person id="78"><plan selected="yes"><act type="h" x="-14441637.207234059" y="3978787.0195810786" end_time="09:00:00" /><leg mode="car" /><act type="w" x="-14419113.494985048" y="3948340.795052671" start_time="09:00:00" end_time="18:00:00" /><leg mode="car" /><act type="h" x="-14441637.207234059" y="3978787.0195810786" /></plan></person><person id="79"><plan selected="yes"><act type="h" x="-14444766.092608992" y="3996306.850159406" end_time="09:00:00" /><leg mode="car" /><act type="w" x="-14440955.669215363" y="4009477.2687793165" start_time="09:00:00" end_time="18:00:00" /><leg mode="car" /><act type="h" x="-14444766.092608992" y="3996306.850159406" /></plan></person><person id="80"><plan selected="yes"><act type="h" x="-14411880.808035638" y="3945239.4761952963" end_time="09:00:00" /><leg mode="car" /><act type="w" x="-14453064.14729597" y="3972878.8528694874" start_time="09:00:00" end_time="18:00:00" /><leg mode="car" /><act type="h" x="-14411880.808035638" y="3945239.4761952963" /></plan></person><person id="81"><plan selected="yes"><act type="h" x="-14447944.793206636" y="4064891.5990863796" end_time="09:00:00" /><leg mode="car" /><act type="w" x="-14448242.415290292" y="3983370.314015869" start_time="09:00:00" end_time="18:00:00" /><leg mode="car" /><act type="h" x="-14447944.793206636" y="4064891.5990863796" /></plan></person><person id="82"><plan selected="yes"><act type="h" x="-14386462.146399109" y="4001278.2742266753" end_time="09:00:00" /><leg mode="car" /><act type="w" x="-14415906.307650672" y="3989186.7072499935" start_time="09:00:00" end_time="18:00:00" /><leg mode="car" /><act type="h" x="-14386462.146399109" y="4001278.2742266753" /></plan></person><person id="83"><plan selected="yes"><act type="h" x="-14459128.1315896" y="3984859.7539174254" end_time="09:00:00" /><leg mode="car" /><act type="w" x="-14441362.66810501" y="3986461.3567196596" start_time="09:00:00" end_time="18:00:00" /><leg mode="car" /><act type="h" x="-14459128.1315896" y="3984859.7539174254" /></plan></person><person id="84"><plan selected="yes"><act type="h" x="-14442383.250781884" y="3993251.329792834" end_time="09:00:00" /><leg mode="car" /><act type="w" x="-14391537.709391475" y="3924365.676841853" start_time="09:00:00" end_time="18:00:00" /><leg mode="car" /><act type="h" x="-14442383.250781884" y="3993251.329792834" /></plan></person><person id="85"><plan selected="yes"><act type="h" x="-14439924.831079062" y="4004285.5919626015" end_time="09:00:00" /><leg mode="car" /><act type="w" x="-14445062.486274654" y="4008975.312270374" start_time="09:00:00" end_time="18:00:00" /><leg mode="car" /><act type="h" x="-14439924.831079062" y="4004285.5919626015" /></plan></person><person id="86"><plan selected="yes"><act type="h" x="-14444101.980565356" y="4008002.402093867" end_time="09:00:00" /><leg mode="car" /><act type="w" x="-14447633.849239819" y="3970344.2842656365" start_time="09:00:00" end_time="18:00:00" /><leg mode="car" /><act type="h" x="-14444101.980565356" y="4008002.402093867" /></plan></person><person id="87"><plan selected="yes"><act type="h" x="-14408778.47046777" y="3990618.831222419" end_time="09:00:00" /><leg mode="car" /><act type="w" x="-14388049.468416385" y="3997120.737862859" start_time="09:00:00" end_time="18:00:00" /><leg mode="car" /><act type="h" x="-14408778.47046777" y="3990618.831222419" /></plan></person><person id="88"><plan selected="yes"><act type="h" x="-14411955.19406172" y="3950160.317933772" end_time="09:00:00" /><leg mode="car" /><act type="w" x="-14437698.588633962" y="3967039.1868228945" start_time="09:00:00" end_time="18:00:00" /><leg mode="car" /><act type="h" x="-14411955.19406172" y="3950160.317933772" /></plan></person><person id="89"><plan selected="yes"><act type="h" x="-14391411.560879262" y="3980891.6646793773" end_time="09:00:00" /><leg mode="car" /><act type="w" x="-14453328.178154567