<?xml version='1.0' encoding='UTF-8'?>
<vehicleDefinitions xmlns="http://www.matsim.org/files/dtd" xmlns:xsi="http://www.w3.org/2001/XMLSchema-instance" xsi:schemaLocation="http://www.matsim.org/files/dtd http://www.matsim.org/files/dtd/vehicleDefinitions_v2.0.xsd"><vehicleType id="EV_65.0kWh"><capacity seats="0" standingRoomInPersons="0" /><length meter="7.5" /><width meter="1.0" /><engineInformation><attributes><attribute name="HbefaTechnology" class="java.lang.String">electricity</attribute><attribute name="chargerTypes" class="java.util.Collections$UnmodifiableCollection">["default","dynamic"]</attribute><attribute name="energyCapacityInKWhOrLiters" class="java.lang.Double">65.0</attribute></attributes></engineInformation><costInformation /><passengerCarEquivalents pce="1.0" /><networkMode networkMode="car" /><flowEfficiencyFactor factor="1.0" /></vehicleType><vehicle id="1" type="EV_65.0kWh"><attributes><attribute name="initialSoc" class="java.lang.Double">0.11587746508479094</attribute></attributes></vehicle><vehicle id="2" type="EV_65.0kWh"><attributes><attribute name="initialSoc" class="java.lang.Double">0.17271312193342928</attribute></attributes></vehicle><vehicle id="3" type="EV_65.0kWh"><attributes><attribute name="initialSoc" class="java.lang.Double">0.1540455326310206</attribute></attributes></vehicle><vehicle id="4" type="EV_65.0kWh"><attributes><attribute name="initialSoc" class="java.lang.Double">0.11945858818931691</attribute></attributes></vehicle><vehicle id="5" type="EV_65.0kWh"><attributes><attribute name="initialSoc" class="java.lang.Double">0.18670032383189455</attribute></attributes></vehicle><vehicle id="6" type="EV_65.0kWh"><attributes><attribute name="initialSoc" class="java.lang.Double">0.1210337489100419</attribute></attributes></vehicle><vehicle id="7" type="EV_65.0kWh"><attributes><attribute name="initialSoc" class="java.lang.Double">0.10729410360977487</attribute></attributes></vehicle><vehicle id="8" type="EV_65.0kWh"><attributes><attribute name="initialSoc" class="java.lang.Double">0.18017837226893382</attribute></attributes></vehicle><vehicle id="9" type="EV_65.0kWh"><attributes><attribute name="initialSoc" class="java.lang.Double">0.1196211848678127</attribute></attributes></vehicle><vehicle id="10" type="EV_65.0kWh"><attributes><attribute name="initialSoc" class="java.lang.Double">0.15446202008855642</attribute></attributes></vehicle><vehicle id="11" type="EV_65.0kWh"><attributes><attribute name="initialSoc" class="java.lang.Double">0.1003958287111848</attribute></attributes></vehicle><vehicle id="12" type="EV_65.0kWh"><attributes><attribute name="initialSoc" class="java.lang.Double">0.1722830971348372</attribute></attributes></vehicle><vehicle id="13" type="EV_65.0kWh"><attributes><attribute name="initialSoc" class="java.lang.Double">0.17891306562215914</attribute></attributes></vehicle><vehicle id="14" type="EV_65.0kWh"><attributes><attribute name="initialSoc" class="java.lang.Double">0.11132615482028116</attribute></attributes></vehicle><vehicle id="15" type="EV_65.0kWh"><attributes><attribute name="initialSoc" class="java.lang.Double">0.16886118656202284</attribute></attributes></vehicle><vehicle id="16" type="EV_65.0kWh"><attributes><attribute name="initialSoc" class="java.lang.Double">0.166325632680392</attribute></attributes></vehicle><vehicle id="17" type="EV_65.0kWh"><attributes><attribute name="initialSoc" class="java.lang.Double">0.11380801864078854</attribute></attributes></vehicle><vehicle id="18" type="EV_65.0kWh"><attributes><attribute name="initialSoc" class="java.lang.Double">0.10886125735580687</attribute></attributes></vehicle><vehicle id="19" type="EV_65.0kWh"><attributes><attribute name="initialSoc" class="java.lang.Double">0.16886731970715685</attribute></attributes></vehicle><vehicle id="20" type="EV_65.0kWh"><attributes><attribute name="initialSoc" class="java.lang.Double">0.12915132952775166</attribute></attributes></vehicle><vehicle id="21" type="EV_65.0kWh"><attributes><attribute name="initialSoc" class="java.lang.Double">0.1209748329388049</attribute></attributes></vehicle><vehicle id="22" type="EV_65.0kWh"><attributes><attribute name="initialSoc" class="java.lang.Double">0.10808243311689092</attribute></attributes></vehicle><vehicle id="23" type="EV_65.0kWh"><attributes><attribute name="initialSoc" class="java.lang.Double">0.17414923006469046</attribute></attributes></vehicle><vehicle id="24" type="EV_65.0kWh"><attributes><attribute name="initialSoc" class="java.lang.Double">0.11142590019459891</attribute></attributes></vehicle><vehicle id="25" type="EV_65.0kWh"><attributes><attribute name="initialSoc" class="java.lang.Double">0.1968548277006054</attribute></attributes></vehicle><vehicle id="26" type="EV_65.0kWh"><attributes><attribute name="initialSoc" class="java.lang.Double">0.14595327260850693</attribute></attributes></vehicle><vehicle id="27" type="EV_65.0kWh"><attributes><attribute name="initialSoc" class="java.lang.Double">0.15656920373306688</attribute></attributes></vehicle><vehicle id="28" type="EV_65.0kWh"><attributes><attribute name="initialSoc" class="java.lang.Double">0.10718853049535355</attribute></attributes></vehicle><vehicle id="29" type="EV_65.0kWh"><attributes><attribute name="initialSoc" class="java.lang.Double">0.1620452832176476</attribute></attributes></vehicle><vehicle id="30" type="EV_65.0kWh"><attributes><attribute name="initialSoc" class="java.lang.Double">0.18194788252964172</attribute></attributes></vehicle><vehicle id="31" type="EV_65.0kWh"><attributes><attribute name="initialSoc" class="java.lang.Double">0.1250922554053347</attribute></attributes></vehicle><vehicle id="32" type="EV_65.0kWh"><attributes><attribute name="initialSoc" class="java.lang.Double">0.17788672391918597</attribute></attributes></vehicle><vehicle id="33" type="EV_65.0kWh"><attributes><attribute name="initialSoc" class="java.lang.Double">0.14739569935555558</attribute></attributes></vehicle><vehicle id="34" type="EV_65.0kWh"><attributes><attribute name="initialSoc" class="java.lang.Double">0.10018425672054487</attribute></attributes></vehicle><vehicle id="35" type="EV_65.0kWh"><attributes><attribute name="initialSoc" class="java.lang.Double">0.1023626288299136</attribute></attributes></vehicle><vehicle id="36" type="EV_65.0kWh"><attributes><attribute name="initialSoc" class="java.lang.Double">0.10094505117170845</attribute></attributes></vehicle><vehicle id="37" type="EV_65.0kWh"><attributes><attribute name="initialSoc" class="java.lang.Double">0.10955687168665591</attribute></attributes></vehicle><vehicle id="38" type="EV_65.0kWh"><attributes><attribute name="initialSoc" class="java.lang.Double">0.11252202129443045</attribute></attributes></vehicle><vehicle id="39" type="EV_65.0kWh"><attributes><attribute name="initialSoc" class="java.lang.Double">0.12535877206778012</attribute></attributes></vehicle><vehicle id="40" type="EV_65.0kWh"><attributes><attribute name="initialSoc" class="java.lang.Double">0.17987565759106044</attribute></attributes></vehicle><vehicle id="41" type="EV_65.0kWh"><attributes><attribute name="initialSoc" class="java.lang.Double">0.1603183320870757</attribute></attributes></vehicle><vehicle id="42" type="EV_65.0kWh"><attributes><attribute name="initialSoc" class="java.lang.Double">0.1925581642157935</attribute></attributes></vehicle><vehicle id="43" type="EV_65.0kWh"><attributes><attribute name="initialSoc" class="java.lang.Double">0.16205466369579982</attribute></attributes></vehicle><vehicle id="44" type="EV_65.0kWh"><attributes><attribute name="initialSoc" class="java.lang.Double">0.12239957030778274</attribute></attributes></vehicle><vehicle id="45" type="EV_65.0kWh"><attributes><attribute name="initialSoc" class="java.lang.Double">0.1721908644387612</attribute></attributes></vehicle><vehicle id="46" type="EV_65.0kWh"><attributes><attribute name="initialSoc" class="java.lang.Double">0.12102732610687922</attribute></attributes></vehicle><vehicle id="47" type="EV_65.0kWh"><attributes><attribute name="initialSoc" class="java.lang.Double">0.16073678795112276</attribute></attributes></vehicle><vehicle id="48" type="EV_65.0kWh"><attributes><attribute name="initialSoc" class="java.lang.Double">0.19627998583684286</attribute></attributes></vehicle><vehicle id="49" type="EV_65.0kWh"><attributes><attribute name="initialSoc" class="java.lang.Double">0.18367123043355413</attribute></attributes></vehicle></vehicleDefinitions>