<?xml version="1.0" ?>
<!DOCTYPE plans SYSTEM "http://www.matsim.org/files/dtd/plans_v4.dtd">
<plans xml:lang="de-CH"><person id="1"><plan selected="yes"><act type="h" x="-14429568.226251982" y="3956170.646224324" end_time="09:00:00" /><leg mode="car" /><act type="w" x="-14442414.633853996" y="3966401.4131692154" start_time="09:00:00" end_time="18:00:00" /><leg mode="car" /><act type="h" x="-14429568.226251982" y="3956170.646224324" /></plan></person><person id="2"><plan selected="yes"><act type="h" x="-14419231.548019225" y="3950831.7695340714" end_time="09:00:00" /><leg mode="car" /><act type="w" x="-14385067.231589168" y="3924656.687265567" start_time="09:00:00" end_time="18:00:00" /><leg mode="car" /><act type="h" x="-14419231.548019225" y="3950831.7695340714" /></plan></person><person id="3"><plan selected="yes"><act type="h" x="-14440280.57011759" y="4000763.4327797536" end_time="09:00:00" /><leg mode="car" /><act type="w" x="-14444890.755368691" y="4009708.6546491086" start_time="09:00:00" end_time="18:00:00" /><leg mode="car" /><act type="h" x="-14440280.57011759" y="4000763.4327797536" /></plan></person><person id="4"><plan selected="yes"><act type="h" x="-14445023.237525204" y="4009882.739286123" end_time="09:00:00" /><leg mode="car" /><act type="w" x="-14475941.045551209" y="4073018.112035856" start_time="09:00:00" end_time="18:00:00" /><leg mode="car" /><act type="h" x="-14445023.237525204" y="4009882.739286123" /></plan></person><person id="5"><plan selected="yes"><act type="h" x="-14452655.288430465" y="3973290.385285004" end_time="09:00:00" /><leg mode="car" /><act type="w" x="-14442821.804295333" y="4017962.3983846596" start_time="09:00:00" end_time="18:00:00" /><leg mode="car" /><act type="h" x="-14452655.288430465" y="3973290.385285004" /></plan></person><person id="6"><plan selected="yes"><act type="h" x="-14448853.656552572" y="4056791.296573294" end_time="09:00:00" /><leg mode="car" /><act type="w" x="-14439582.4373105" y="3977371.100778364" start_time="09:00:00" end_time="18:00:00" /><leg mode="car" /><act type="h" x="-14448853.656552572" y="4056791.296573294" /></plan></person><person id="7"><plan selected="yes"><act type="h" x="-14439666.923891911" y="3982125.15920952" end_time="09:00:00" /><leg mode="car" /><act type="w" x="-14460336.968877327" y="4017331.401693091" start_time="09:00:00" end_time="18:00:00" /><leg mode="car" /><act type="h" x="-14439666.923891911" y="3982125.15920952" /></plan></person><person id="8"><plan selected="yes"><act type="h" x="-14474557.172691358" y="4076371.3498515524" end_time="09:00:00" /><leg mode="car" /><act type="w" x="-14445208.437550444" y="3991407.8748797136" start_time="09:00:00" end_time="18:00:00" /><leg mode="car" /><act type="h" x="-14474557.172691358" y="4076371.3498515524" /></plan></person><person id="9"><plan selected="yes"><act type="h" x="-14448138.220670585" y="3984600.8868588796" end_time="09:00:00" /><leg mode="car" /><act type="w" x="-14417371.25947352" y="4016384.340508232" start_time="09:00:00" end_time="18:00:00" /><leg mode="car" /><act type="h" x="-14448138.220670585" y="3984600.8868588796" /></plan></person><person id="10"><plan selected="yes"><act type="h" x="-14455748.024224475" y="4076755.064274178" end_time="09:00:00" /><leg mode="car" /><act type="w" x="-14386482.301161587" y="4001656.0349942" start_time="09:00:00" end_time="18:00:00" /><leg mode="car" /><act type="h" x="-14455748.024224475" y="4076755.064274178" /></plan></person><person id="11"><plan selected="yes"><act type="h" x="-14452716.14510114" y="3973717.1203021975" end_time="09:00:00" /><leg mode="car" /><act type="w" x="-14454499.20113261" y="4014888.503458072" start_time="09:00:00" end_time="18:00:00" /><leg mode="car" /><act type="h" x="-14452716.14510114" y="3973717.1203021975" /></plan></person><person id="12"><plan selected="yes"><act type="h" x="-14383559.806163754" y="3924514.6513788453" end_time="09:00:00" /><leg mode="car" /><act type="w" x="-14449100.402328273" y="3988380.1925001307" start_time="09:00:00" end_time="18:00:00" /><leg mode="car" /><act type="h" x="-14383559.806163754" y="3924514.6513788453" /></plan></person><person id="13"><plan selected="yes"><act type="h" x="-14442553.830594245" y="4012002.093262398" end_time="09:00:00" /><leg mode="car" /><act type="w" x="-14418690.679829312" y="3947930.384648699" start_time="09:00:00" end_time="18:00:00" /><leg mode="car" /><act type="h" x="-14442553.830594245" y="4012002.093262398" /></plan></person><person id="14"><plan selected="yes"><act type="h" x="-14446809.30120944" y="3966386.4755679984" end_time="09:00:00" /><leg mode="car" /><act type="w" x="-14402433.771907771" y="3986883.982260844" start_time="09:00:00" end_time="18:00:00" /><leg mode="car" /><act type="h" x="-14446809.30120944" y="3966386.4755679984" /></plan></person><person id="15"><plan selected="yes"><act type="h" x="-14395181.734491773" y="3990817.333527818" end_time="09:00:00" /><leg mode="car" /><act type="w" x="-14469782.90210217" y="3985086.209285668" start_time="09:00:00" end_time="18:00:00" /><leg mode="car" /><act type="h" x="-14395181.734491773" y="3990817.333527818" /></plan></person><person id="16"><plan selected="yes"><act type="h" x="-14369908.960187063" y="3953693.768488965" end_time="09:00:00" /><leg mode="car" /><act type="w" x="-14380632.26369881" y="3924172.424908643" start_time="09:00:00" end_time="18:00:00" /><leg mode="car" /><act type="h" x="-14369908.960187063" y="3953693.768488965" /></plan></person><person id="17"><plan selected="yes"><act type="h" x="-14451248.700954266" y="4013390.907856588" end_time="09:00:00" /><leg mode="car" /><act type="w" x="-14459458.708616903" y="4079807.955477721" start_time="09:00:00" end_time="18:00:00" /><leg mode="car" /><act type="h" x="-14451248.700954266" y="4013390.907856588" /></plan></person><person id="18"><plan selected="yes"><act type="h" x="-14445105.910733951" y="3995749.35570824" end_time="09:00:00" /><leg mode="car" /><act type="w" x="-14445173.41354429" y="3989024.8625303805" start_time="09:00:00" end_time="18:00:00" /><leg mode="car" /><act type="h" x="-14445105.910733951" y="3995749.35570824" /></plan></person><person id="19"><plan selected="yes"><act type="h" x="-14442053.893686913" y="3994950.46098308" end_time="09:00:00" /><leg mode="car" /><act type="w" x="-14394552.468555262" y="3993787.3554447745" start_time="09:00:00" end_time="18:00:00" /><leg mode="car" /><act type="h" x="-14442053.893686913" y="3994950.46098308" /></plan></person><person id="20"><plan selected="yes"><act type="h" x="-14411858.46047581" y="3950664.6617881907" end_time="09:00:00" /><leg mode="car" /><act type="w" x="-14459103.468276385" y="4015979.9134465065" start_time="09:00:00" end_time="18:00:00" /><leg mode="car" /><act type="h" x="-14411858.46047581" y="3950664.6617881907" /></plan></person><person id="21"><plan selected="yes"><act type="h" x="-14431003.02043867" y="3957134.945381306" end_time="09:00:00" /><leg mode="car" /><act type="w" x="-14465360.242624355" y="4065430.9558845926" start_time="09:00:00" end_time="18:00:00" /><leg mode="car" /><act type="h" x="-14431003.02043867" y="3957134.945381306" /></plan></person><person id="22"><plan selected="yes"><act type="h" x="-14415264.595503962" y="3951139.622207438" end_time="09:00:00" /><leg mode="car" /><act type="w" x="-14403217.803055542" y="3989485.0028937184" start_time="09:00:00" end_time="18:00:00" /><leg mode="car" /><act type="h" x="-14415264.595503962" y="3951139.622207438" /></plan></person><person id="23"><plan selected="yes"><act type="h" x="-14449176.054649802" y="3989518.7636995907" end_time="09:00:00" /><leg mode="car" /><act type="w" x="-14453047.58005005" y="4027440.99666263" start_time="09:00:00" end_time="18:00:00" /><leg mode="car" /><act type="h" x="-14449176.054649802" y="3989518.7636995907" /></plan></person><person id="24"><plan selected="yes"><act type="h" x="-14403427.55812369" y="4018289.4740488506" end_time="09:00:00" /><leg mode="car" /><act type="w" x="-14444944.310799863" y="3979870.0441622795" start_time="09:00:00" end_time="18:00:00" /><leg mode="car" /><act type="h" x="-14403427.55812369" y="4018289.4740488506" /></plan></person><person id="25"><plan selected="yes"><act type="h" x="-14475111.843335463" y="4075075.571681426" end_time="09:00:00" /><leg mode="car" /><act type="w" x="-14393065.849492209" y="3924898.277029081" start_time="09:00:00" end_time="18:00:00" /><leg mode="car" /><act type="h" x="-14475111.843335463" y="4075075.571681426" /></plan></person><person id="26"><plan selected="yes"><act type="h" x="-14448883.80195149" y="3985688.9036993138" end_time="09:00:00" /><leg mode="car" /><act type="w" x="-14445202.499013932" y="3986454.243786654" start_time="09:00:00" end_time="18:00:00" /><leg mode="car" /><act type="h" x="-14448883.80195149" y="3985688.9036993138" /></plan></person><person id="27"><plan selected="yes"><act type="h" x="-14388137.771391042" y="4006296.6240029" end_time="09:00:00" /><leg mode="car" /><act type="w" x="-14431342.474818302" y="3986031.169519254" start_time="09:00:00" end_time="18:00:00" /><leg mode="car" /><act type="h" x="-14388137.771391042" y="4006296.6240029" /></plan></person><person id="28"><plan selected="yes"><act type="h" x="-14427476.842789473" y="4022056.344638061" end_time="09:00:00" /><leg mode="car" /><act type="w" x="-14353507.696482752" y="3920816.805368344" start_time="09:00:00" end_time="18:00:00" /><leg mode="car" /><act type="h" x="-14427476.842789473" y="4022056.344638061" /></plan></person><person id="29"><plan selected="yes"><act type="h" x="-14460037.138883775" y="4079931.9319454446" end_time="09:00:00" /><leg mode="car" /><act type="w" x="-14415037.544533573" y="3951161.2679038295" start_time="09:00:00" end_time="18:00:00" /><leg mode="car" /><act type="h" x="-14460037.138883775" y="4079931.9319454446" /></plan></person><person id="30"><plan selected="yes"><act type="h" x="-14366152.538534824" y="3921920.8841262115" end_time="09:00:00" /><leg mode="car" /><act type="w" x="-14459712.35666362" y="4052733.2246172754" start_time="09:00:00" end_time="18:00:00" /><leg mode="car" /><act type="h" x="-14366152.538534824" y="3921920.8841262115" /></plan></person><person id="31"><plan selected="yes"><act type="h" x="-14418509.276866496" y="3947706.789393449" end_time="09:00:00" /><leg mode="car" /><act type="w" x="-14441103.558647258" y="3966193.3175750836" start_time="09:00:00" end_time="18:00:00" /><leg mode="car" /><act type="h" x="-14418509.276866496" y="3947706.789393449" /></plan></person><person id="32"><plan selected="yes"><act type="h" x="-14411883.44980826" y="3945174.115271037" end_time="09:00:00" /><leg mode="car" /><act type="w" x="-14447494.376166321" y="3970484.8347390885" start_time="09:00:00" end_time="18:00:00" /><leg mode="car" /><act type="h" x="-14411883.44980826" y="3945174.115271037" /></plan></person><person id="33"><plan selected="yes"><act type="h" x="-14440240.316942925" y="3986014.3329238747" end_time="09:00:00" /><leg mode="car" /><act type="w" x="-14404741.537544956" y="3990685.0793165476" start_time="09:00:00" end_time="18:00:00" /><leg mode="car" /><act type="h" x="-14440240.316942925" y="3986014.3329238747" /></plan></person><person id="34"><plan selected="yes"><act type="h" x="-14399388.43891779" y="3928895.2711415607" end_time="09:00:00" /><leg mode="car" /><act type="w" x="-14440303.84995386" y="3986065.0398828913" start_time="09:00:00" end_time="18:00:00" /><leg mode="car" /><act type="h" x="-14399388.43891779" y="3928895.2711415607" /></plan></person><person id="35"><plan selected="yes"><act type="h" x="-14454778.855623543" y="3985677.9876935105" end_time="09:00:00" /><leg mode="car" /><act type="w" x="-14459750.84853851" y="4047474.589965869" start_time="09:00:00" end_time="18:00:00" /><leg mode="car" /><act type="h" x="-14454778.855623543" y="3985677.9876935105" /></plan></person><person id="36"><plan selected="yes"><act type="h" x="-14449692.349469233" y="4063509.5467537325" end_time="09:00:00" /><leg mode="car" /><act type="w" x="-14473901.723464735" y="4077859.1659743064" start_time="09:00:00" end_time="18:00:00" /><leg mode="car" /><act type="h" x="-14449692.349469233" y="4063509.5467537325" /></plan></person><person id="37"><plan selected="yes"><act type="h" x="-14431072.929691292" y="3957050.4094879157" end_time="09:00:00" /><leg mode="car" /><act type="w" x="-14413063.095625175" y="4017112.958130277" start_time="09:00:00" end_time="18:00:00" /><leg mode="car" /><act type="h" x="-14431072.929691292" y="3957050.4094879157" /></plan></person><person id="38"><plan selected="yes"><act type="h" x="-14409041.049786853" y="3934152.036004115" end_time="09:00:00" /><leg mode="car" /><act type="w" x="-14437838.949885845" y="3969036.090049514" start_time="09:00:00" end_time="18:00:00" /><leg mode="car" /><act type="h" x="-14409041.049786853" y="3934152.036004115" /></plan></person><person id="39"><plan selected="yes"><act type="h" x="-14399167.35648205" y="3984195.002163855" end_time="09:00:00" /><leg mode="car" /><act type="w" x="-14474610.138454583" y="4076262.4812917756" start_time="09:00:00" end_time="18:00:00" /><leg mode="car" /><act type="h" x="-14399167.35648205" y="3984195.002163855" /></plan></person><person id="40"><plan selected="yes"><act type="h" x="-14366312.801782804" y="3921974.454744871" end_time="09:00:00" /><leg mode="car" /><act type="w" x="-14441484.00091624" y="3989675.694673954" start_time="09:00:00" end_time="18:00:00" /><leg mode="car" /><act type="h" x="-14366312.801782804" y="3921974.454744871" /></plan></person><person id="41"><plan selected="yes"><act type="h" x="-14441321.180501983" y="4009791.1296923594" end_time="09:00:00" /><leg mode="car" /><act type="w" x="-14475768.884373946" y="4073233.5263088504" start_time="09:00:00" end_time="18:00:00" /><leg mode="car" /><act type="h" x="-14441321.180501983" y="4009791.1296923594" /></plan></person><person id="42"><plan selected="yes"><act type="h" x="-14449654.254799342" y="4017078.103337147" end_time="09:00:00" /><leg mode="car" /><act type="w" x="-14443353.697210275" y="3966407.9155457695" start_time="09:00:00" end_time="18:00:00" /><leg mode="car" /><act type="h" x="-14449654.254799342" y="4017078.103337147" /></plan></person><person id="43"><plan selected="yes"><act type="h" x="-14453225.473319812" y="3983279.074973145" end_time="09:00:00" /><leg mode="car" /><act type="w" x="-14403821.257390063" y="3931237.6608174886" start_time="09:00:00" end_time="18:00:00" /><leg mode="car" /><act type="h" x="-14453225.473319812" y="3983279.074973145" /></plan></person><person id="44"><plan selected="yes"><act type="h" x="-14455963.147672268" y="4053082.477787883" end_time="09:00:00" /><leg mode="car" /><act type="w" x="-14383967.737092368" y="3966493.3690105896" start_time="09:00:00" end_time="18:00:00" /><leg mode="car" /><act type="h" x="-14455963.147672268" y="4053082.477787883" /></plan></person><person id="45"><plan selected="yes"><act type="h" x="-14441374.941574318" y="4009748.5251925504" end_time="09:00:00" /><leg mode="car" /><act type="w" x="-14442750.743839217" y="4017871.599381013" start_time="09:00:00" end_time="18:00:00" /><leg mode="car" /><act type="h" x="-14441374.941574318" y="4009748.5251925504" /></plan></person><person id="46"><plan selected="yes"><act type="h" x="-14392685.79123817" y="4011149.896349354" end_time="09:00:00" /><leg mode="car" /><act type="w" x="-14401311.07038495" y="3958247.916363197" start_time="09:00:00" end_time="18:00:00" /><leg mode="car" /><act type="h" x="-14392685.79123817" y="4011149.896349354" /></plan></person><person id="47"><plan selected="yes"><act type="h" x="-14448832.467191467" y="4054697.4376296904" end_time="09:00:00" /><leg mode="car" /><act type="w" x="-14441475.873286622" y="3989690.4086922365" start_time="09:00:00" end_time="18:00:00" /><leg mode="car" /><act type="h" x="-14448832.467191467" y="4054697.4376296904" /></plan></person><person id="48"><plan selected="yes"><act type="h" x="-14362049.523690334" y="3920971.868312066" end_time="09:00:00" /><leg mode="car" /><act type="w" x="-14402272.44773138" y="3988962.6699882606" start_time="09:00:00" end_time="18:00:00" /><leg mode="car" /><act type="h" x="-14362049.523690334" y="3920971.868312066" /></plan></person><person id="49"><plan selected="yes"><act type="h" x="-14453708.436610317" y="3985751.5296546803" end_time="09:00:00" /><leg mode="car" /><act type="w" x="-14439186.245693127" y="3974390.1554051423" start_time="09:00:00" end_time="18:00:00" /><leg mode="car" /><act type="h" x="-14453708.436610317" y="3985751.5296546803" /></plan></person><person id="50"><plan selected="yes"><act type="h" x="-14390113.666354682" y="3976404.1197383073" end_time="09:00:00" /><leg mode="car" /><act type="w" x="-14439942.89758421" y="3983800.762635914" start_time="09:00:00" end_time="18:00:00" /><leg mode="car" /><act type="h" x="-14390113.666354682" y="3976404.1197383073" /></plan></person><person id="51"><plan selected="yes"><act type="h" x="-14412438.413386816" y="3942666.4581433157" end_time="09:00:00" /><leg mode="car" /><act type="w" x="-14394636.363483075" y="3986837.8584066033" start_time="09:00:00" end_time="18:00:00" /><leg mode="car" /><act type="h" x="-14412438.413386816" y="3942666.4581433157" /></plan></person><person id="52"><plan selected="yes"><act type="h" x="-14458528.710260788" y="4015910.899251467" end_time="09:00:00" /><leg mode="car" /><act type="w" x="-14394891.074245792" y="3991109.217368325" start_time="09:00:00" end_time="18:00:00" /><leg mode="car" /><act type="h" x="-14458528.710260788" y="4015910.899251467" /></plan></person><person id="53"><plan selected="yes"><act type="h" x="-14441755.589248443" y="4007670.213167175" end_time="09:00:00" /><leg mode="car" /><act type="w" x="-14402137.017780008" y="3985862.536372541" start_time="09:00:00" end_time="18:00:00" /><leg mode="car" /><act type="h" x="-14441755.589248443" y="4007670.213167175" /></plan></person><person id="54"><plan selected="yes"><act type="h" x="-14459398.148485893" y="4046990.2832869906" end_time="09:00:00" /><leg mode="car" /><act type="w" x="-14449352.585124522" y="3987594.930698138" start_time="09:00:00" end_time="18:00:00" /><leg mode="car" /><act type="h" x="-14459398.148485893" y="4046990.2832869906" /></plan></person><person id="55"><plan selected="yes"><act type="h" x="-14448866.768085374" y="3985612.5990037383" end_time="09:00:00" /><leg mode="car" /><act type="w" x="-14440380.795142086" y="4007346.6912532467" start_time="09:00:00" end_time="18:00:00" /><leg mode="car" /><act type="h" x="-14448866.768085374" y="3985612.5990037383" /></plan></person><person id="56"><plan selected="yes"><act type="h" x="-14461224.8825427" y="4018375.734501848" end_time="09:00:00" /><leg mode="car" /><act type="w" x="-14387371.344184045" y="3969232.572206071" start_time="09:00:00" end_time="18:00:00" /><leg mode="car" /><act type="h" x="-14461224.8825427" y="4018375.734501848" /></plan></person><person id="57"><plan selected="yes"><act type="h" x="-14415929.546096114" y="3945782.1831869315" end_time="09:00:00" /><leg mode="car" /><act type="w" x="-14451019.938199725" y="4018148.240843378" start_time="09:00:00" end_time="18:00:00" /><leg mode="car" /><act type="h" x="-14415929.546096114" y="3945782.1831869315" /></plan></person><person id="58"><plan selected="yes"><act type="h" x="-14445052.771843594" y="3983111.0826989715" end_time="09:00:00" /><leg mode="car" /><act type="w" x="-14454825.207740499" y="4032235.547819915" start_time="09:00:00" end_time="18:00:00" /><leg mode="car" /><act type="h" x="-14445052.771843594" y="3983111.0826989715" /></plan></person><person id="59"><plan selected="yes"><act type="h" x="-14445076.701485787" y="3986660.8636433873" end_time="09:00:00" /><leg mode="car" /><act type="w" x="-14437856.880883424" y="3968723.6859811223" start_time="09:00:00" end_time="18:00:00" /><leg mode="car" /><act type="h" x="-14445076.701485787" y="3986660.8636433873" /></plan></person><person id="60"><plan selected="yes"><act type="h" x="-14457240.527155662" y="4040033.216094207" end_time="09:00:00" /><leg mode="car" /><act type="w" x="-14442753.760847233" y="4016814.088607309" start_time="09:00:00" end_time="18:00:00" /><leg mode="car" /><act type="h" x="-14457240.527155662" y="4040033.216094207" /></plan></person><person id="61"><plan selected="yes"><act type="h" x="-14461670.87552185" y="4057814.1709737903" end_time="09:00:00" /><leg mode="car" /><act type="w" x="-14445155.200513192" y="3986156.3800054826" start_time="09:00:00" end_time="18:00:00" /><leg mode="car" /><act type="h" x="-14461670.87552185" y="4057814.1709737903" /></plan></person><person id="62"><plan selected="yes"><act type="h" x="-14411364.98769252" y="3951879.828880015" end_time="09:00:00" /><leg mode="car" /><act type="w" x="-14469110.379407557" y="3985157.574083715" start_time="09:00:00" end_time="18:00:00" /><leg mode="car" /><act type="h" x="-14411364.98769252" y="3951879.828880015" /></plan></person><person id="63"><plan selected="yes"><act type="h" x="-14459369.449210461" y="4046951.519200074" end_time="09:00:00" /><leg mode="car" /><act type="w" x="-14445212.292039199" y="3991647.863740202" start_time="09:00:00" end_time="18:00:00" /><leg mode="car" /><act type="h" x="-14459369.449210461" y="4046951.519200074" /></plan></person><person id="64"><plan selected="yes"><act type="h" x="-14445637.044161843" y="3989902.7529897946" end_time="09:00:00" /><leg mode="car" /><act type="w" x="-14403587.500229813" y="3931205.5015276764" start_time="09:00:00" end_time="18:00:00" /><leg mode="car" /><act type="h" x="-14445637.044161843" y="3989902.7529897946" /></plan></person><person id="65"><plan selected="yes"><act type="h" x="-14423911.092723757" y="3988302.342405274" end_time="09:00:00" /><leg mode="car" /><act type="w" x="-14361936.023192177" y="3920846.2846515756" start_time="09:00:00" end_time="18:00:00" /><leg mode="car" /><act type="h" x="-14423911.092723757" y="3988302.342405274" /></plan></person><person id="66"><plan selected="yes"><act type="h" x="-14391920.278162183" y="3981457.7516467962" end_time="09:00:00" /><leg mode="car" /><act type="w" x="-14440339.166730039" y="3988027.9204663816" start_time="09:00:00" end_time="18:00:00" /><leg mode="car" /><act type="h" x="-14391920.278162183" y="3981457.7516467962" /></plan></person><person id="67"><plan selected="yes"><act type="h" x="-14439789.906724347" y="3984092.1835344657" end_time="09:00:00" /><leg mode="car" /><act type="w" x="-14447165.525020216" y="3972946.5218528607" start_time="09:00:00" end_time="18:00:00" /><leg mode="car" /><act type="h" x="-14439789.906724347" y="3984092.1835344657" /></plan></person><person id="68"><plan selected="yes"><act type="h" x="-14454710.028887108" y="3978465.008281036" end_time="09:00:00" /><leg mode="car" /><act type="w" x="-14417212.906488774" y="3946669.1895480207" start_time="09:00:00" end_time="18:00:00" /><leg mode="car" /><act type="h" x="-14454710.028887108" y="3978465.008281036" /></plan></person><person id="69"><plan selected="yes"><act type="h" x="-14449437.535654157" y="4054487.108677436" end_time="09:00:00" /><leg mode="car" /><act type="w" x="-14401414.051277375" y="3958021.28463215" start_time="09:00:00" end_time="18:00:00" /><leg mode="car" /><act type="h" x="-14449437.535654157" y="4054487.108677436" /></plan></person><person id="70"><plan selected="yes"><act type="h" x="-14461035.647500128" y="4018153.4686108893" end_time="09:00:00" /><leg mode="car" /><act type="w" x="-14415742.202171471" y="3945115.3341165218" start_time="09:00:00" end_time="18:00:00" /><leg mode="car" /><act type="h" x="-14461035.647500128" y="4018153.4686108893" /></plan></person><person id="71"><plan selected="yes"><act type="h" x="-14450077.656636307" y="4012954.3149576676" end_time="09:00:00" /><leg mode="car" /><act type="w" x="-14455883.844064908" y="4034039.4607390766" start_time="09:00:00" end_time="18:00:00" /><leg mode="car" /><act type="h" x="-14450077.656636307" y="4012954.3149576676" /></plan></person><person id="72"><plan selected="yes"><act type="h" x="-14419417.572411498" y="3950965.908895926" end_time="09:00:00" /><leg mode="car" /><act type="w" x="-14454876.612233134" y="4021003.4382521147" start_time="09:00:00" end_time="18:00:00" /><leg mode="car" /><act type="h" x="-14419417.572411498" y="3950965.908895926" /></plan></person><person id="73"><plan selected="yes"><act type="h" x="-14445286.710498646" y="3989720.0225377986" end_time="09:00:00" /><leg mode="car" /><act type="w" x="-14388520.555495556" y="4006199.613719287" start_time="09:00:00" end_time="18:00:00" /><leg mode="car" /><act type="h" x="-14445286.710498646" y="3989720.0225377986" /></plan></person><person id="74"><plan selected="yes"><act type="h" x="-14444019.789061492" y="3990031.647577901" end_time="09:00:00" /><leg mode="car" /><act type="w" x="-14447899.647928594" y="4015552.0987945697" start_time="09:00:00" end_time="18:00:00" /><leg mode="car" /><act type="h" x="-14444019.789061492" y="3990031.647577901" /></plan></person><person id="75"><plan selected="yes"><act type="h" x="-14448210.85228546" y="3982711.790586887" end_time="09:00:00" /><leg mode="car" /><act type="w" x="-14438238.964824561" y="3978348.4022996244" start_time="09:00:00" end_time="18:00:00" /><leg mode="car" /><act type="h" x="-14448210.85228546" y="3982711.790586887" /></plan></person><person id="76"><plan selected="yes"><act type="h" x="-14419815.67167953" y="3952055.1009076387" end_time="09:00:00" /><leg mode="car" /><act type="w" x="-14454532.233545827" y="3985737.9806180196" start_time="09:00:00" end_time="18:00:00" /><leg mode="car" /><act type="h" x="-14419815.67167953" y="3952055.1009076387" /></plan></person><person id="77"><plan selected="yes"><act type="h" x="-14402339.449327689" y="3988973.197101452" end_time="09:00:00" /><leg mode="car" /><act type="w" x="-14441377.68360644" y="3990105.7855642224" start_time="09:00:00" end_time="18:00:00" /><leg mode="car" /><act type="h" x="-14402339.449327689" y="3988973.197101452" /></plan></person><person id="78"><plan selected="yes"><act type="h" x="-14394731.956230985" y="3993461.574270336" end_time="09:00:00" /><leg mode="car" /><act type="w" x="-14428777.767996365" y="3984138.5359630734" start_time="09:00:00" end_time="18:00:00" /><leg mode="car" /><act type="h" x="-14394731.956230985" y="3993461.574270336" /></plan></person><person id="79"><plan selected="yes"><act type="h" x="-14399827.696071884" y="3959900.3923018104" end_time="09:00:00" /><leg mode="car" /><act type="w" x="-14458208.588797873" y="4015786.439461704" start_time="09:00:00" end_time="18:00:00" /><leg mode="car" /><act type="h" x="-14399827.696071884" y="3959900.3923018104" /></plan></person><person id="80"><plan selected="yes"><act type="h" x="-14444978.45020814" y="3989845.2482132283" end_time="09:00:00" /><leg mode="car" /><act type="w" x="-14395038.951876255" y="4013154.708653949" start_time="09:00:00" end_time="18:00:00" /><leg mode="car" /><act type="h" x="-14444978.45020814" y="3989845.2482132283" /></plan></person><person id="81"><plan selected="yes"><act type="h" x="-14386584.419405077" y="4002088.898894864" end_time="09:00:00" /><leg mode="car" /><act type="w" x="-14459382.585795846" y="4046970.047018208" start_time="09:00:00" end_time="18:00:00" /><leg mode="car" /><act type="h" x="-14386584.419405077" y="4002088.898894864" /></plan></person><person id="82"><plan selected="yes"><act type="h" x="-14469338.990661908" y="3986594.5602095714" end_time="09:00:00" /><leg mode="car" /><act type="w" x="-14440250.6999683" y="3985992.977183926" start_time="09:00:00" end_time="18:00:00" /><leg mode="car" /><act type="h" x="-14469338.990661908" y="3986594.5602095714" /></plan></person><person id="83"><plan selected="yes"><act type="h" x="-14440225.985051336" y="3986975.6482564914" end_time="09:00:00" /><leg mode="car" /><act type="w" x="-14417281.367031474" y="3946688.6049186555" start_time="09:00:00" end_time="18:00:00" /><leg mode="car" /><act type="h" x="-14440225.985051336" y="3986975.6482564914" /></plan></person><person id="84"><plan selected="yes"><act type="h" x="-14389364.917639071" y="4008640.053319074" end_time="09:00:00" /><leg mode="car" /><act type="w" x="-14445248.150162619" y="3990523.0878405618" start_time="09:00:00" end_time="18:00:00" /><leg mode="car" /><act type="h" x="-14389364.917639071" y="4008640.053319074" /></plan></person><person id="85"><plan selected="yes"><act type="h" x="-14445240.974557472" y="3989519.6001747376" end_time="09:00:00" /><leg mode="car" /><act type="w" x="-14454359.712142764" y="3979768.838692907" start_time="09:00:00" end_time="18:00:00" /><leg mode="car" /><act type="h" x="-14445240.974557472" y="3989519.6001747376" /></plan></person><person id="86"><plan selected="yes"><act type="h" x="-14449014.817104358" y="3986593.27146532" end_time="09:00:00" /><leg mode="car" /><act type="w" x="-14412126.009688897" y="3951440.2156947427" start_time="09:00:00" end_time="18:00:00" /><leg mode="car" /><act type="h" x="-14449014.817104358" y="3986593.27146532" /></plan></person><person id="87"><plan selected="yes"><act type="h" x="-14448194.64764607" y="3989657.7404137487" end_time="09:00:00" /><leg mode="car" /><act type="w" x="-14447593.963026347" y="3968065.2651221543" start_time="09:00:00" end_time="18:00:00" /><leg mode="car" /><act type="h" x="-14448194.64764607" y="3989657.7404137487" /></plan></person><person id="88"><plan selected="yes"><act type="h" x="-14438341.409806024" y="3966994.098583269" end_time="09:00:00" /><leg mode="car" /><act type="w" x="-14439443.660524298" y="3966534.439928646" start_time="09:00:00" end_time="18:00:00" /><leg mode="car" /><act type="h" x="-14438341.409806024" y="3966994.098583269" /></plan></person><person id="89"><plan selected="yes"><act type="h" x="-14448879.646821497" y="3985661.183369706" end_time="09:00:00" /><leg mode="car" /><act type="w" x="-14445253.734210094"