<?xml version="1.0" ?>
<!DOCTYPE plans SYSTEM "http://www.matsim.org/files/dtd/plans_v4.dtd">
<plans xml:lang="de-CH"><person id="1"><plan selected="yes"><act type="h" x="-14461917.079525234" y="4018858.6645462727" end_time="03:00:00" /><leg mode="car" /><act type="h" x="-14451180.27006123" y="4013365.1225805567" start_time="03:00:00" end_time="11:00:00" /></plan></person><person id="2"><plan selected="yes"><act type="h" x="-14440072.112414168" y="3966248.485969594" end_time="05:00:00" /><leg mode="car" /><act type="h" x="-14402164.501396153" y="3986029.6735513257" start_time="05:00:00" end_time="13:00:00" /></plan></person><person id="3"><plan selected="yes"><act type="h" x="-14435212.993799534" y="4023640.346981808" end_time="05:00:00" /><leg mode="car" /><act type="h" x="-14469751.685995776" y="3985098.363059476" start_time="05:00:00" end_time="13:00:00" /></plan></person><person id="4"><plan selected="yes"><act type="h" x="-14445221.110626869" y="3989173.7437661253" end_time="06:00:00" /><leg mode="car" /><act type="h" x="-14441469.513739238" y="3989876.7850216525" start_time="06:00:00" end_time="14:00:00" /></plan></person><person id="5"><plan selected="yes"><act type="h" x="-14440358.987209104" y="4007324.4493982377" end_time="07:00:00" /><leg mode="car" /><act type="h" x="-14475806.268372836" y="4072973.906302372" start_time="07:00:00" end_time="15:00:00" /></plan></person><person id="6"><plan selected="yes"><act type="h" x="-14439887.667273197" y="3984359.9671869925" end_time="07:00:00" /><leg mode="car" /><act type="h" x="-14442007.539407648" y="3996999.2730616666" start_time="07:00:00" end_time="15:00:00" /></plan></person><person id="7"><plan selected="yes"><act type="h" x="-14413533.399078129" y="4016948.150097945" end_time="08:00:00" /><leg mode="car" /><act type="h" x="-14448036.020756513" y="3981138.1339644785" start_time="08:00:00" end_time="16:00:00" /></plan></person><person id="8"><plan selected="yes"><act type="h" x="-14445556.50365791" y="4010203.1758046923" end_time="08:00:00" /><leg mode="car" /><act type="h" x="-14446144.613411017" y="4022835.87632225" start_time="08:00:00" end_time="16:00:00" /></plan></person><person id="9"><plan selected="yes"><act type="h" x="-14365960.077296698" y="3921909.80683047" end_time="08:00:00" /><leg mode="car" /><act type="h" x="-14452657.097889433" y="4014357.9734989256" start_time="08:00:00" end_time="16:00:00" /></plan></person><person id="10"><plan selected="yes"><act type="h" x="-14446273.729790632" y="3986325.7506609904" end_time="08:00:00" /><leg mode="car" /><act type="h" x="-14397778.209943725" y="3989457.561602251" start_time="08:00:00" end_time="16:00:00" /></plan></person><person id="11"><plan selected="yes"><act type="h" x="-14395255.042455824" y="3960768.111349631" end_time="08:00:00" /><leg mode="car" /><act type="h" x="-14442772.961434633" y="4017995.0945053403" start_time="08:00:00" end_time="16:00:00" /></plan></person><person id="12"><plan selected="yes"><act type="h" x="-14445039.519661259" y="3986460.281083582" end_time="09:00:00" /><leg mode="car" /><act type="h" x="-14438429.550001008" y="3965188.746378091" start_time="09:00:00" end_time="17:00:00" /></plan></person><person id="13"><plan selected="yes"><act type="h" x="-14421725.132068103" y="3989500.6066346657" end_time="10:00:00" /><leg mode="car" /><act type="h" x="-14440379.165103633" y="3986529.7704570843" start_time="10:00:00" end_time="18:00:00" /></plan></person><person id="14"><plan selected="yes"><act type="h" x="-14453225.473319812" y="3983279.074973145" end_time="10:00:00" /><leg mode="car" /><act type="h" x="-14449110.929021092" y="3988268.9345484357" start_time="10:00:00" end_time="18:00:00" /></plan></person><person id="15"><plan selected="yes"><act type="h" x="-14444191.546849051" y="4008019.001198924" end_time="10:00:00" /><leg mode="car" /><act type="h" x="-14413620.506754253" y="3951238.861265797" start_time="10:00:00" end_time="18:00:00" /></plan></person><person id="16"><plan selected="yes"><act type="h" x="-14442744.711387366" y="4017840.68663875" end_time="10:00:00" /><leg mode="car" /><act type="h" x="-14455992.11208616" y="4037196.067744003" start_time="10:00:00" end_time="18:00:00" /></plan></person><person id="17"><plan selected="yes"><act type="h" x="-14456564.162106846" y="3985069.165505677" end_time="11:00:00" /><leg mode="car" /><act type="h" x="-14440011.658808572" y="3978585.814929904" start_time="11:00:00" end_time="19:00:00" /></plan></person><person id="18"><plan selected="yes"><act type="h" x="-14442198.927173072" y="4012879.703482526" end_time="11:00:00" /><leg mode="car" /><act type="h" x="-14453191.132154131" y="4019867.5274994317" start_time="11:00:00" end_time="19:00:00" /></plan></person><person id="19"><plan selected="yes"><act type="h" x="-14459649.562284373" y="4016734.8486035415" end_time="11:00:00" /><leg mode="car" /><act type="h" x="-14441824.851480981" y="3990022.1207500068" start_time="11:00:00" end_time="19:00:00" /></plan></person><person id="20"><plan selected="yes"><act type="h" x="-14448647.882071363" y="4076284.3326640967" end_time="11:00:00" /><leg mode="car" /><act type="h" x="-14437755.14576835" y="3965805.039026537" start_time="11:00:00" end_time="19:00:00" /></plan></person><person id="21"><plan selected="yes"><act type="h" x="-14449560.563173832" y="4017012.62294844" end_time="12:00:00" /><leg mode="car" /><act type="h" x="-14455994.695664866" y="4037142.5200059707" start_time="12:00:00" end_time="20:00:00" /></plan></person><person id="22"><plan selected="yes"><act type="h" x="-14448524.519171061" y="4056589.186868676" end_time="12:00:00" /><leg mode="car" /><act type="h" x="-14445510.307443809" y="3990057.0729150623" start_time="12:00:00" end_time="20:00:00" /></plan></person><person id="23"><plan selected="yes"><act type="h" x="-14442171.110613361" y="3989970.1498518535" end_time="12:00:00" /><leg mode="car" /><act type="h" x="-14444071.600279512" y="4007998.1417092774" start_time="12:00:00" end_time="20:00:00" /></plan></person><person id="24"><plan selected="yes"><act type="h" x="-14429203.508774014" y="3956048.4137508385" end_time="12:00:00" /><leg mode="car" /><act type="h" x="-14442436.539601525" y="4012197.153802787" start_time="12:00:00" end_time="20:00:00" /></plan></person><person id="25"><plan selected="yes"><act type="h" x="-14448474.870740008" y="3989590.1249135085" end_time="12:00:00" /><leg mode="car" /><act type="h" x="-14437998.648070825" y="3969635.5113078044" start_time="12:00:00" end_time="20:00:00" /></plan></person><person id="26"><plan selected="yes"><act type="h" x="-14437077.652794411" y="4023558.3484219466" end_time="13:00:00" /><leg mode="car" /><act type="h" x="-14442196.32006988" y="3966373.7642127057" start_time="13:00:00" end_time="21:00:00" /></plan></person><person id="27"><plan selected="yes"><act type="h" x="-14402408.561308896" y="4017797.038683573" end_time="13:00:00" /><leg mode="car" /><act type="h" x="-14440555.612957053" y="4007510.7602809267" start_time="13:00:00" end_time="21:00:00" /></plan></person><person id="28"><plan selected="yes"><act type="h" x="-14428738.520672867" y="3984330.323975055" end_time="13:00:00" /><leg mode="car" /><act type="h" x="-14447356.750491194" y="3977538.0280222846" start_time="13:00:00" end_time="21:00:00" /></plan></person><person id="29"><plan selected="yes"><act type="h" x="-14448651.968096595" y="3986219.6346257958" end_time="15:00:00" /><leg mode="car" /><act type="h" x="-14457447.87434223" y="3989750.8578928537" start_time="15:00:00" end_time="23:00:00" /></plan></person><person id="30"><plan selected="yes"><act type="h" x="-14454775.569705963" y="3978039.5392298885" end_time="15:00:00" /><leg mode="car" /><act type="h" x="-14447099.796995612" y="4014352.4026454655" start_time="15:00:00" end_time="23:00:00" /></plan></person><person id="31"><plan selected="yes"><act type="h" x="-14475946.04860847" y="4073002.387291958" end_time="15:00:00" /><leg mode="car" /><act type="h" x="-14469372.229095964" y="4068926.006316871" start_time="15:00:00" end_time="23:00:00" /></plan></person><person id="32"><plan selected="yes"><act type="h" x="-14438326.930920763" y="3961305.521503154" end_time="15:00:00" /><leg mode="car" /><act type="h" x="-14409883.330181498" y="3990897.0353774466" start_time="15:00:00" end_time="23:00:00" /></plan></person><person id="33"><plan selected="yes"><act type="h" x="-14442713.869873637" y="3966426.3952029436" end_time="16:00:00" /><leg mode="car" /><act type="h" x="-14441555.834603768" y="3978754.8527059793" start_time="16:00:00" end_time="00:00:00" /></plan></person><person id="34"><plan selected="yes"><act type="h" x="-14353883.379532915" y="3920739.8728439193" end_time="16:00:00" /><leg mode="car" /><act type="h" x="-14387340.786146643" y="3969014.1744883964" start_time="16:00:00" end_time="00:00:00" /></plan></person><person id="35"><plan selected="yes"><act type="h" x="-14446145.64540608" y="3986302.949380043" end_time="16:00:00" /><leg mode="car" /><act type="h" x="-14471188.32216331" y="3984927.3888904103" start_time="16:00:00" end_time="00:00:00" /></plan></person><person id="36"><plan selected="yes"><act type="h" x="-14447777.947570523" y="3970158.012860803" end_time="16:00:00" /><leg mode="car" /><act type="h" x="-14390206.75460497" y="4009379.7549701435" start_time="16:00:00" end_time="00:00:00" /></plan></person><person id="37"><plan selected="yes"><act type="h" x="-14431751.73753085" y="3978999.730133715" end_time="16:00:00" /><leg mode="car" /><act type="h" x="-14419057.283226218" y="3948301.221345744" start_time="16:00:00" end_time="00:00:00" /></plan></person><person id="38"><plan selected="yes"><act type="h" x="-14452390.958513107" y="4014198.229408501" end_time="17:00:00" /><leg mode="car" /><act type="h" x="-14453525.130311111" y="3984538.4916010927" start_time="17:00:00" end_time="01:00:00" /></plan></person><person id="39"><plan selected="yes"><act type="h" x="-14459745.03488137" y="4052823.819058445" end_time="17:00:00" /><leg mode="car" /><act type="h" x="-14439255.6546973" y="3978644.715339401" start_time="17:00:00" end_time="01:00:00" /></plan></person><person id="40"><plan selected="yes"><act type="h" x="-14439183.468980998" y="3974396.92057968" end_time="17:00:00" /><leg mode="car" /><act type="h" x="-14401820.45314515" y="3956611.134277698" start_time="17:00:00" end_time="01:00:00" /></plan></person><person id="41"><plan selected="yes"><act type="h" x="-14407316.56367709" y="4018307.984945495" end_time="17:00:00" /><leg mode="car" /><act type="h" x="-14448853.248371106" y="3986244.929558454" start_time="17:00:00" end_time="01:00:00" /></plan></person><person id="42"><plan selected="yes"><act type="h" x="-14443886.939922752" y="3986292.5379077937" end_time="18:00:00" /><leg mode="car" /><act type="h" x="-14402118.564668516" y="3985550.8027884685" start_time="18:00:00" end_time="02:00:00" /></plan></person><person id="43"><plan selected="yes"><act type="h" x="-14445686.695839735" y="4010283.6411010344" end_time="18:00:00" /><leg mode="car" /><act type="h" x="-14439244.241776897" y="3966781.77494392" start_time="18:00:00" end_time="02:00:00" /></plan></person><person id="44"><plan selected="yes"><act type="h" x="-14402993.447252896" y="3956057.5119974846" end_time="18:00:00" /><leg mode="car" /><act type="h" x="-14447703.07937505" y="3969395.0725458777" start_time="18:00:00" end_time="02:00:00" /></plan></person><person id="45"><plan selected="yes"><act type="h" x="-14445350.632443376" y="3992645.379569104" end_time="18:00:00" /><leg mode="car" /><act type="h" x="-14399318.47859674" y="3928859.0453816648" start_time="18:00:00" end_time="02:00:00" /></plan></person><person id="46"><plan selected="yes"><act type="h" x="-14459947.656553658" y="4052735.326885621" end_time="19:00:00" /><leg mode="car" /><act type="h" x="-14442923.454237495" y="3989960.253821398" start_time="19:00:00" end_time="03:00:00" /></plan></person><person id="47"><plan selected="yes"><act type="h" x="-14386893.207255142" y="3924418.846828321" end_time="20:00:00" /><leg mode="car" /><act type="h" x="-14419384.624598166" y="3950730.559945665" start_time="20:00:00" end_time="04:00:00" /></plan></person><person id="48"><plan selected="yes"><act type="h" x="-14443744.586102434" y="3990002.318420538" end_time="21:00:00" /><leg mode="car" /><act type="h" x="-14441495.237728156" y="4010183.186309682" start_time="21:00:00" end_time="05:00:00" /></plan></person><person id="49"><plan selected="yes"><act type="h" x="-14389377.406402677" y="4007403.359314745" end_time="22:00:00" /><leg mode="car" /><act type="h" x="-14416080.99079725" y="3951090.103577913" start_time="22:00:00" end_time="06:00:00" /></plan></person></plans>