<?xml version="1.0" ?>
<!DOCTYPE plans SYSTEM "http://www.matsim.org/files/dtd/plans_v4.dtd">
<plans xml:lang="de-CH"><person id="1"><plan selected="yes"><act type="h" x="-14447783.224210389" y="3970051.0035637254" end_time="01:00:00" /><leg mode="car" /><act type="h" x="-14439384.137334064" y="3966706.4250705447" start_time="01:00:00" end_time="09:00:00" /></plan></person><person id="2"><plan selected="yes"><act type="h" x="-14440040.47526066" y="4006199.429345283" end_time="01:00:00" /><leg mode="car" /><act type="h" x="-14449602.538174048" y="4017021.6879863064" start_time="01:00:00" end_time="09:00:00" /></plan></person><person id="3"><plan selected="yes"><act type="h" x="-14419481.437351076" y="3951726.5264941324" end_time="01:00:00" /><leg mode="car" /><act type="h" x="-14420756.327619825" y="3952500.070185898" start_time="01:00:00" end_time="09:00:00" /></plan></person><person id="4"><plan selected="yes"><act type="h" x="-14410131.167677348" y="3937764.712395237" end_time="02:00:00" /><leg mode="car" /><act type="h" x="-14398113.660451984" y="3960769.702079858" start_time="02:00:00" end_time="10:00:00" /></plan></person><person id="5"><plan selected="yes"><act type="h" x="-14392303.960455252" y="4011228.8703785213" end_time="02:00:00" /><leg mode="car" /><act type="h" x="-14445201.079628922" y="3990381.3238071813" start_time="02:00:00" end_time="10:00:00" /></plan></person><person id="6"><plan selected="yes"><act type="h" x="-14439911.69215973" y="3984355.0025441716" end_time="02:00:00" /><leg mode="car" /><act type="h" x="-14439953.893525079" y="3986029.971642372" start_time="02:00:00" end_time="10:00:00" /></plan></person><person id="7"><plan selected="yes"><act type="h" x="-14411829.044087285" y="3944099.96316802" end_time="02:00:00" /><leg mode="car" /><act type="h" x="-14453395.937477594" y="4054411.5814046655" start_time="02:00:00" end_time="10:00:00" /></plan></person><person id="8"><plan selected="yes"><act type="h" x="-14441269.77044384" y="3990339.9872335275" end_time="02:00:00" /><leg mode="car" /><act type="h" x="-14461446.326549975" y="4018524.9223779608" start_time="02:00:00" end_time="10:00:00" /></plan></person><person id="9"><plan selected="yes"><act type="h" x="-14411140.000113944" y="3952287.309192872" end_time="02:00:00" /><leg mode="car" /><act type="h" x="-14453199.72667726" y="3983506.2292049797" start_time="02:00:00" end_time="10:00:00" /></plan></person><person id="10"><plan selected="yes"><act type="h" x="-14439942.37594804" y="3984380.8279025285" end_time="02:00:00" /><leg mode="car" /><act type="h" x="-14360103.862700263" y="3919931.630579671" start_time="02:00:00" end_time="10:00:00" /></plan></person><person id="11"><plan selected="yes"><act type="h" x="-14408521.119014364" y="3933521.5267150532" end_time="03:00:00" /><leg mode="car" /><act type="h" x="-14447497.08260727" y="3978812.2575548785" start_time="03:00:00" end_time="11:00:00" /></plan></person><person id="12"><plan selected="yes"><act type="h" x="-14438126.711013941" y="3967015.7346970118" end_time="03:00:00" /><leg mode="car" /><act type="h" x="-14405138.944073277" y="3955058.0691178213" start_time="03:00:00" end_time="11:00:00" /></plan></person><person id="13"><plan selected="yes"><act type="h" x="-14369871.241343074" y="3921423.3169526514" end_time="03:00:00" /><leg mode="car" /><act type="h" x="-14449307.12359941" y="4023703.1064197253" start_time="03:00:00" end_time="11:00:00" /></plan></person><person id="14"><plan selected="yes"><act type="h" x="-14454926.00927998" y="4021052.6861590627" end_time="03:00:00" /><leg mode="car" /><act type="h" x="-14386865.666597793" y="4002939.035648753" start_time="03:00:00" end_time="11:00:00" /></plan></person><person id="15"><plan selected="yes"><act type="h" x="-14393112.378788767" y="3995078.1186591284" end_time="03:00:00" /><leg mode="car" /><act type="h" x="-14410475.666268315" y="3940506.6244569113" start_time="03:00:00" end_time="11:00:00" /></plan></person><person id="16"><plan selected="yes"><act type="h" x="-14427802.825838923" y="3986305.356390327" end_time="03:00:00" /><leg mode="car" /><act type="h" x="-14364638.100476896" y="3949761.73607504" start_time="03:00:00" end_time="11:00:00" /></plan></person><person id="17"><plan selected="yes"><act type="h" x="-14410109.222619457" y="3937974.15593189" end_time="03:00:00" /><leg mode="car" /><act type="h" x="-14403044.09808632" y="3956034.239342229" start_time="03:00:00" end_time="11:00:00" /></plan></person><person id="18"><plan selected="yes"><act type="h" x="-14402264.062088856" y="3988980.2542728013" end_time="03:00:00" /><leg mode="car" /><act type="h" x="-14442749.254108252" y="3966407.800981481" start_time="03:00:00" end_time="11:00:00" /></plan></person><person id="19"><plan selected="yes"><act type="h" x="-14442095.909793071" y="4007834.995322454" end_time="04:00:00" /><leg mode="car" /><act type="h" x="-14437883.509284059" y="4023313.057471644" start_time="04:00:00" end_time="12:00:00" /></plan></person><person id="20"><plan selected="yes"><act type="h" x="-14378870.382253015" y="3923701.6242030803" end_time="04:00:00" /><leg mode="car" /><act type="h" x="-14467920.206545282" y="3985200.777941237" start_time="04:00:00" end_time="12:00:00" /></plan></person><person id="21"><plan selected="yes"><act type="h" x="-14441195.140578633" y="3990506.8333194857" end_time="04:00:00" /><leg mode="car" /><act type="h" x="-14410093.424669927" y="3935624.216892979" start_time="04:00:00" end_time="12:00:00" /></plan></person><person id="22"><plan selected="yes"><act type="h" x="-14411502.77230625" y="3951759.1855512573" end_time="04:00:00" /><leg mode="car" /><act type="h" x="-14441657.73670275" y="4007611.2401268315" start_time="04:00:00" end_time="12:00:00" /></plan></person><person id="23"><plan selected="yes"><act type="h" x="-14447076.3620037" y="3971319.1636156454" end_time="04:00:00" /><leg mode="car" /><act type="h" x="-14433887.16712645" y="3958640.086913872" start_time="04:00:00" end_time="12:00:00" /></plan></person><person id="24"><plan selected="yes"><act type="h" x="-14387362.365261903" y="3969019.890179588" end_time="04:00:00" /><leg mode="car" /><act type="h" x="-14443313.752245063" y="3986321.617259426" start_time="04:00:00" end_time="12:00:00" /></plan></person><person id="25"><plan selected="yes"><act type="h" x="-14402519.52725982" y="4017928.893563363" end_time="04:00:00" /><leg mode="car" /><act type="h" x="-14419266.235597635" y="3951049.810329425" start_time="04:00:00" end_time="12:00:00" /></plan></person><person id="26"><plan selected="yes"><act type="h" x="-14442722.847473072" y="4016759.020482083" end_time="04:00:00" /><leg mode="car" /><act type="h" x="-14441229.602691606" y="3991624.973758696" start_time="04:00:00" end_time="12:00:00" /></plan></person><person id="27"><plan selected="yes"><act type="h" x="-14440185.1710957" y="3985817.43747239" end_time="04:00:00" /><leg mode="car" /><act type="h" x="-14448847.953853274" y="3985627.1443587085" start_time="04:00:00" end_time="12:00:00" /></plan></person><person id="28"><plan selected="yes"><act type="h" x="-14447671.112973956" y="3970347.0201021684" end_time="04:00:00" /><leg mode="car" /><act type="h" x="-14444570.266007582" y="4022841.2751778876" start_time="04:00:00" end_time="12:00:00" /></plan></person><person id="29"><plan selected="yes"><act type="h" x="-14458995.814778754" y="3984905.6876736884" end_time="04:00:00" /><leg mode="car" /><act type="h" x="-14445113.685719546" y="3987709.5744315297" start_time="04:00:00" end_time="12:00:00" /></plan></person><person id="30"><plan selected="yes"><act type="h" x="-14437666.057188192" y="3967021.517750943" end_time="04:00:00" /><leg mode="car" /><act type="h" x="-14442787.960024148" y="4020673.7002116735" start_time="04:00:00" end_time="12:00:00" /></plan></person><person id="31"><plan selected="yes"><act type="h" x="-14456178.125183986" y="4038310.221588236" end_time="05:00:00" /><leg mode="car" /><act type="h" x="-14459880.030661594" y="3984817.0824697306" start_time="05:00:00" end_time="13:00:00" /></plan></person><person id="32"><plan selected="yes"><act type="h" x="-14420203.406633193" y="3952155.3313234206" end_time="05:00:00" /><leg mode="car" /><act type="h" x="-14459558.045677412" y="4052805.1656407057" start_time="05:00:00" end_time="13:00:00" /></plan></person><person id="33"><plan selected="yes"><act type="h" x="-14388486.982554218" y="3973986.631343394" end_time="05:00:00" /><leg mode="car" /><act type="h" x="-14410123.170296393" y="3934838.961859392" start_time="05:00:00" end_time="13:00:00" /></plan></person><person id="34"><plan selected="yes"><act type="h" x="-14411899.592951212" y="3945689.1621201136" end_time="05:00:00" /><leg mode="car" /><act type="h" x="-14447560.061126664" y="3967759.70480632" start_time="05:00:00" end_time="13:00:00" /></plan></person><person id="35"><plan selected="yes"><act type="h" x="-14450080.693521839" y="3989660.2342302864" end_time="05:00:00" /><leg mode="car" /><act type="h" x="-14445546.812217735" y="3986345.4627857045" start_time="05:00:00" end_time="13:00:00" /></plan></person><person id="36"><plan selected="yes"><act type="h" x="-14411736.98854017" y="3942350.1618159255" end_time="05:00:00" /><leg mode="car" /><act type="h" x="-14444509.808673548" y="4000263.8907948234" start_time="05:00:00" end_time="13:00:00" /></plan></person><person id="37"><plan selected="yes"><act type="h" x="-14438453.06188997" y="3965059.035697867" end_time="05:00:00" /><leg mode="car" /><act type="h" x="-14389268.565743834" y="4008468.4051735126" start_time="05:00:00" end_time="13:00:00" /></plan></person><person id="38"><plan selected="yes"><act type="h" x="-14446106.19027514" y="4010406.374063227" end_time="05:00:00" /><leg mode="car" /><act type="h" x="-14449132.637698326" y="3988927.047232295" start_time="05:00:00" end_time="13:00:00" /></plan></person><person id="39"><plan selected="yes"><act type="h" x="-14423774.550782502" y="3988384.731121524" end_time="05:00:00" /><leg mode="car" /><act type="h" x="-14442354.216089664" y="3996173.2266298183" start_time="05:00:00" end_time="13:00:00" /></plan></person><person id="40"><plan selected="yes"><act type="h" x="-14445058.656693451" y="3986460.3220047243" end_time="05:00:00" /><leg mode="car" /><act type="h" x="-14393345.868816366" y="3985337.0762214893" start_time="05:00:00" end_time="13:00:00" /></plan></person><person id="41"><plan selected="yes"><act type="h" x="-14458959.66546834" y="3984914.834535032" end_time="05:00:00" /><leg mode="car" /><act type="h" x="-14452637.894161357" y="3985918.9301498565" start_time="05:00:00" end_time="13:00:00" /></plan></person><person id="42"><plan selected="yes"><act type="h" x="-14380300.15893149" y="3924211.79882468" end_time="05:00:00" /><leg mode="car" /><act type="h" x="-14445114.321597664" y="3988994.1321558775" start_time="05:00:00" end_time="13:00:00" /></plan></person><person id="43"><plan selected="yes"><act type="h" x="-14435083.450045094" y="3978406.4251110246" end_time="06:00:00" /><leg mode="car" /><act type="h" x="-14439857.398832224" y="3978382.4099295735" start_time="06:00:00" end_time="14:00:00" /></plan></person><person id="44"><plan selected="yes"><act type="h" x="-14373214.939894581" y="3922173.6717944103" end_time="06:00:00" /><leg mode="car" /><act type="h" x="-14448128.770033501" y="3983701.75680867" start_time="06:00:00" end_time="14:00:00" /></plan></person><person id="45"><plan selected="yes"><act type="h" x="-14430967.767114464" y="3986052.0333942315" end_time="06:00:00" /><leg mode="car" /><act type="h" x="-14447035.699110286" y="3971111.475798806" start_time="06:00:00" end_time="14:00:00" /></plan></person><person id="46"><plan selected="yes"><act type="h" x="-14437792.022524163" y="3969068.836696782" end_time="06:00:00" /><leg mode="car" /><act type="h" x="-14447998.008885672" y="4015471.137631781" start_time="06:00:00" end_time="14:00:00" /></plan></person><person id="47"><plan selected="yes"><act type="h" x="-14442480.711011397" y="4011964.777804815" end_time="06:00:00" /><leg mode="car" /><act type="h" x="-14402277.260842646" y="3989030.864430101" start_time="06:00:00" end_time="14:00:00" /></plan></person><person id="48"><plan selected="yes"><act type="h" x="-14413086.987081911" y="3943093.3889461164" end_time="06:00:00" /><leg mode="car" /><act type="h" x="-14448103.295771759" y="3979937.9653456965" start_time="06:00:00" end_time="14:00:00" /></plan></person><person id="49"><plan selected="yes"><act type="h" x="-14475665.981082983" y="4073841.3453227747" end_time="06:00:00" /><leg mode="car" /><act type="h" x="-14469534.33705326" y="4069021.7496139356" start_time="06:00:00" end_time="14:00:00" /></plan></person><person id="50"><plan selected="yes"><act type="h" x="-14447713.42395298" y="3969997.9312428525" end_time="06:00:00" /><leg mode="car" /><act type="h" x="-14447711.054164885" y="3979192.767974188" start_time="06:00:00" end_time="14:00:00" /></plan></person><person id="51"><plan selected="yes"><act type="h" x="-14410179.737393396" y="3937932.692491773" end_time="06:00:00" /><leg mode="car" /><act type="h" x="-14475263.503793389" y="3983784.8028553766" start_time="06:00:00" end_time="14:00:00" /></plan></person><person id="52"><plan selected="yes"><act type="h" x="-14444342.405112972" y="3990061.858296994" end_time="06:00:00" /><leg mode="car" /><act type="h" x="-14459305.283036292" y="4079752.270626126" start_time="06:00:00" end_time="14:00:00" /></plan></person><person id="53"><plan selected="yes"><act type="h" x="-14354157.652520737" y="3920723.875268099" end_time="06:00:00" /><leg mode="car" /><act type="h" x="-14442717.252638672" y="4016692.1102684615" start_time="06:00:00" end_time="14:00:00" /></plan></person><person id="54"><plan selected="yes"><act type="h" x="-14419192.108389037" y="3950891.4128897386" end_time="06:00:00" /><leg mode="car" /><act type="h" x="-14441891.361384865" y="4010789.811964841" start_time="06:00:00" end_time="14:00:00" /></plan></person><person id="55"><plan selected="yes"><act type="h" x="-14448160.15414625" y="3982285.097964622" end_time="06:00:00" /><leg mode="car" /><act type="h" x="-14411882.875411743" y="3950533.928715283" start_time="06:00:00" end_time="14:00:00" /></plan></person><person id="56"><plan selected="yes"><act type="h" x="-14445841.708186101" y="3986317.390866735" end_time="06:00:00" /><leg mode="car" /><act type="h" x="-14439867.52544139" y="3976441.1227778895" start_time="06:00:00" end_time="14:00:00" /></plan></person><person id="57"><plan selected="yes"><act type="h" x="-14442034.748495074" y="3997086.9283267697" end_time="06:00:00" /><leg mode="car" /><act type="h" x="-14445098.842871344" y="3981445.8103523096" start_time="06:00:00" end_time="14:00:00" /></plan></person><person id="58"><plan selected="yes"><act type="h" x="-14451895.856556982" y="4013858.12112798" end_time="06:00:00" /><leg mode="car" /><act type="h" x="-14387347.05600182" y="3969032.932633851" start_time="06:00:00" end_time="14:00:00" /></plan></person><person id="59"><plan selected="yes"><act type="h" x="-14410440.651531173" y="3940566.0223767706" end_time="06:00:00" /><leg mode="car" /><act type="h" x="-14429322.339114213" y="3982766.218581996" start_time="06:00:00" end_time="14:00:00" /></plan></person><person id="60"><plan selected="yes"><act type="h" x="-14448899.846346756" y="3986041.6769125736" end_time="06:00:00" /><leg mode="car" /><act type="h" x="-14370611.956426762" y="3921373.641995933" start_time="06:00:00" end_time="14:00:00" /></plan></person><person id="61"><plan selected="yes"><act type="h" x="-14414810.01521526" y="3951167.4401134066" end_time="06:00:00" /><leg mode="car" /><act type="h" x="-14427295.223857226" y="3986823.069734914" start_time="06:00:00" end_time="14:00:00" /></plan></person><person id="62"><plan selected="yes"><act type="h" x="-14480279.145936871" y="3977114.464401604" end_time="06:00:00" /><leg mode="car" /><act type="h" x="-14402470.382814497" y="3956285.4671920575" start_time="06:00:00" end_time="14:00:00" /></plan></person><person id="63"><plan selected="yes"><act type="h" x="-14452136.574528033" y="4028216.2776863654" end_time="06:00:00" /><leg mode="car" /><act type="h" x="-14414417.33587478" y="3951196.401254624" start_time="06:00:00" end_time="14:00:00" /></plan></person><person id="64"><plan selected="yes"><act type="h" x="-14410118.337539421" y="3935260.6207929337" end_time="06:00:00" /><leg mode="car" /><act type="h" x="-14441189.271256905" y="3991671.188524493" start_time="06:00:00" end_time="14:00:00" /></plan></person><person id="65"><plan selected="yes"><act type="h" x="-14410093.424669927" y="3935624.216892979" end_time="06:00:00" /><leg mode="car" /><act type="h" x="-14375168.315256847" y="3960207.6309608105" start_time="06:00:00" end_time="14:00:00" /></plan></person><person id="66"><plan selected="yes"><act type="h" x="-14448240.857602468" y="4056437.899006457" end_time="06:00:00" /><leg mode="car" /><act type="h" x="-14442919.042620745" y="3994275.3013602872" start_time="06:00:00" end_time="14:00:00" /></plan></person><person id="67"><plan selected="yes"><act type="h" x="-14431264.605380181" y="3986035.5308354255" end_time="06:00:00" /><leg mode="car" /><act type="h" x="-14441073.416521732" y="4003645.85860042" start_time="06:00:00" end_time="14:00:00" /></plan></person><person id="68"><plan selected="yes"><act type="h" x="-14469860.954698758" y="4069196.417425245" end_time="07:00:00" /><leg mode="car" /><act type="h" x="-14454125.912652127" y="4030262.032096086" start_time="07:00:00" end_time="15:00:00" /></plan></person><person id="69"><plan selected="yes"><act type="h" x="-14455151.417667417" y="4053136.2896501706" end_time="07:00:00" /><leg mode="car" /><act type="h" x="-14459650.124291098" y="4052801.108994868" start_time="07:00:00" end_time="15:00:00" /></plan></person><person id="70"><plan selected="yes"><act type="h" x="-14406255.184298923" y="4018520.9706497267" end_time="07:00:00" /><leg mode="car" /><act type="h" x="-14439778.306740133" y="3978976.50859941" start_time="07:00:00" end_time="15:00:00" /></plan></person><person id="71"><plan selected="yes"><act type="h" x="-14403828.911002498" y="3955803.2219640273" end_time="07:00:00" /><leg mode="car" /><act type="h" x="-14448680.461102333" y="3986224.204802218" start_time="07:00:00" end_time="15:00:00" /></plan></person><person id="72"><plan selected="yes"><act type="h" x="-14459701.84511291" y="4052739.7354153055" end_time="07:00:00" /><leg mode="car" /><act type="h" x="-14444167.451693071" y="3986273.4104062812" start_time="07:00:00" end_time="15:00:00" /></plan></person><person id="73"><plan selected="yes"><act type="h" x="-14410382.964025462" y="3990882.8165798998" end_time="07:00:00" /><leg mode="car" /><act type="h" x="-14448885.926017258" y="3986263.235472057" start_time="07:00:00" end_time="15:00:00" /></plan></person><person id="74"><plan selected="yes"><act type="h" x="-14475941.045551209" y="4073018.112035856" end_time="07:00:00" /><leg mode="car" /><act type="h" x="-14452563.486921044" y="3973816.5128635364" start_time="07:00:00" end_time="15:00:00" /></plan></person><person id="75"><plan selected="yes"><act type="h" x="-14442584.797351755" y="3966406.406361937" end_time="07:00:00" /><leg mode="car" /><act type="h" x="-14411484.60952512" y="3941644.412710583" start_time="07:00:00" end_time="15:00:00" /></plan></person><person id="76"><plan selected="yes"><act type="h" x="-14409069.343181856" y="3990645.07254343" end_time="07:00:00" /><leg mode="car" /><act type="h" x="-14410103.416728884" y="3935420.0600351" start_time="07:00:00" end_time="15:00:00" /></plan></person><person id="77"><plan selected="yes"><act type="h" x="-14375427.73979773" y="3961314.7945592827" end_time="07:00:00" /><leg mode="car" /><act type="h" x="-14467073.015442038" y="4066910.408849803" start_time="07:00:00" end_time="15:00:00" /></plan></person><person id="78"><plan selected="yes"><act type="h" x="-14460098.678440321" y="3984736.0926868413" end_time="07:00:00" /><leg mode="car" /><act type="h" x="-14439811.172934664" y="3978398.214605408" start_time="07:00:00" end_time="15:00:00" /></plan></person><person id="79"><plan selected="yes"><act type="h" x="-14440667.025807394" y="3998661.677291342" end_time="07:00:00" /><leg mode="car" /><act type="h" x="-14447704.580350798" y="3969869.955586165" start_time="07:00:00" end_time="15:00:00" /></plan></person><person id="80"><plan selected="yes"><act type="h" x="-14475632.29447187" y="4073000.911182578" end_time="07:00:00" /><leg mode="car" /><act type="h" x="-14442034.793724101" y="3995130.4770898586" start_time="07:00:00" end_time="15:00:00" /></plan></person><person id="81"><plan selected="yes"><act type="h" x="-14453420.815332776" y="3980789.126349322" end_time="07:00:00" /><leg mode="car" /><act type="h" x="-14406565.10946782" y="4018494.343677211" start_time="07:00:00" end_time="15:00:00" /></plan></person><person id="82"><plan selected="yes"><act type="h" x="-14441252.800050441" y="3991631.183002734" end_time="07:00:00" /><leg mode="car" /><act type="h" x="-14375013.889040789" y="3922491.59193006" start_time="07:00:00" end_time="15:00:00" /></plan></person><person id="83"><plan selected="yes"><act type="h" x="-14450213.472458629" y="4059584.204953073" end_time="07:00:00" /><leg mode="car" /><act type="h" x="-14429782.887863915" y="3979390.387887288" start_time="07:00:00" end_time="15:00:00" /></plan></person><person id="84"><plan selected="yes"><act type="h" x="-14427454.109852115" y="3955649.072668979" end_time="07:00:00" /><leg mode="car" /><act type="h" x="-14473988.314956991" y="3984380.873715582" start_time="07:00:00" end_time="15:00:00" /></plan></person><person id="85"><plan selected="yes"><act type="h" x="-14442766.128001032" y="4022302.278097069" end_time="07:00:00" /><leg mode="car" /><act type="h" x="-14440227.378776189" y="3986644.3235110007" start_time="07:00:00" end_time="15:00:00" /></plan></person><person id="86"><plan selected="yes"><act type="h" x="-14440871.26769265" y="4023186.0660236534" end_time="07:00:00" /><leg mode="car" /><act type="h" x="-14447854.160991136" y="4015497.340633481" start_time="07:00:00" end_time="15:00:00" /></plan></person><person id="87"><plan selected="yes"><act type="h" x="-14452804.633153915" y="4014409.4406106155" end_time="07:00:00" /><leg mode="car" /><act type="h" x="-14443365.47999449" y="4022921.470931045" start_time="07:00:00" end_time="15:00:00" /></plan></person><person id="88"><plan selected="yes"><act type="h" x="-14468463.268429993" y="4068160.0533354594" end_time="07:00:00" /><leg mode="car" /><act type="h" x="-14453587.014278095" y="4025743.4941524775" start_time="07:00:00" end_time="15:00:00" /></plan></person><person id="89"><plan selected="yes"><act type="h" x="-14439948.534471463" y="3986057.7134201513" end_time="07:00:00" /><leg mode="car" /><act type="h" x="-14387447.188194327" y="3924363.7770708264" start_time="07:00:00" end_time="15:00:00" /></plan></person><person id="90"><plan selected="yes"><act type="h" x="-14431381.821800137" y="3957455.1842142986" end_time="07:00:00" /><leg mode="car" /><act type="h" x="-14439685.225095516" y="3986016.5216830503" start_time="07:00:00" end_time="15:00:00" /></plan></person><person id="91"><plan selected="yes"><act type="h" x="-14396988.709638335" y="3961081.2686869074" end_time="07:00:00" /><leg mode="car" /><act type="h" x="-14428865.539130535" y="3985646.2245429717" start_time="07:00:00" end_time="15:00:00" /></plan></person><person id="92"><plan selected="yes"><act type="h" x="-14448187.676864905" y="3982323.7672122424" end_time="07:00:00" /><leg mode="car" /><act type="h" x="-14447488.571693355" y="3978488.921003007" start_time="07:00:00" end_time="15:00:00" /></plan></person><person id="93"><plan selected="yes"><act type="h" x="-14447981.786123605" y="4015501.145176439" end_time="08:00:00" /><leg mode="car" /><act type="h" x="-14370466.304074049" y="3955927.5628953986" start_time="08:00:00" end_time="16:00:00" /></plan></person><person id="94"><plan selected="yes"><act type="h" x="-14434907.410785016" y="3986379.231168752" end_time="08:00:00" /><leg mode="car" /><act type="h" x="-14388282.725327244" y="4006111.2332139816" start_time="08:00:00" end_time="16:00:00" /></plan></person><person id="95"><plan selected="yes"><act type="h" x="-14444738.559330812" y="4008279.759034638" end_time="08:00:00" /><leg mode="car" /><act type="h" x="-14440399.311039753" y="3986460.1169497613" start_time="08:00:00" end_time="16:00:00" /></plan></person><person id="96"><plan selected="yes"><act type="h" x="-14460422.948803736" y="4017418.6598644042" end_time="08:00:00" /><leg mode="car" /><act type="h" x="-14440326.620193992" y="3986319.4725030656" start_time="08:00:00" end_time="16:00:00" /></plan></person><person id="97"><plan selected="yes"><act type="h" x="-14398583.155107277" y="3960481.9322137167" end_time="08:00:00" /><leg mode="car" /><act type="h" x="-14444317.951199394" y="4001270.0495518614" start_time="08:00:00" end_time="16:00:00" /></plan></person><person id="98"><plan selected="yes"><act type="h" x="-14469690.100005124" y="3986705.2549822936" end_time="08:00:00" /><leg mode="car" /><act type="h" x="-14433923.745593628" y="3986446.6499771783" start_time="08:00:00" end_time="16:00:00" /></plan></person><person id="99"><plan selected="yes"><act type="h" x="-14442357.599564867" y="3996209.478106428" end_time="08:00:00" /><leg mode="car" /><act type="h" x="-14429873.789590463" y="3986055.061977521" start_time="08:00:00" end_time="16:00:00" /></plan></person><person id="100"><plan selected="yes"><act type="h" x="-14448943.30673651" y="3986230.234375227" end_time="08:00:00" /><leg mode="car" /><act type="h" x="-14392340.376558026" y="4011295.1513561266" start_time="08:00:00" end_time="16:00:00" /></plan></person><person id="101"><plan selected="yes"><act type="h" x="-14428224.356275773" y="3955866.5657477006" end_time="08:00:00" /><leg mode="car" /><act type="h" x="-14423203.123371495" y="3989004.730849231" start_time="08:00:00" end_time="16:00:00" /></plan></person><person id="102"><plan selected="yes"><act type="h" x="-14440153.51896437" y="3986173.7279670835" end_time="08:00:00" /><leg mode="car" /><act type="h" x="-14366123.123496288" y="3921916.6464958526" start_time="08:00:00" end_time="16:00:00" /></plan></person><person id="103"><plan selected="yes"><act type="h" x="-14447343.198868988" y="3977157.302834888" end_time="08:00:00" /><leg mode="car" /><act type="h" x="-14440245.013361309" y="4001629.2437063134" start_time="08:00:00" end_time="16:00:00" /></plan></person><person id="104"><plan selected="yes"><act type="h" x="-14409654.561143635" y="3952885.855065694" end_time="08:00:00" /><leg mode="car" /><act type="h" x="-14454600.901189495" y="4026022.5695323814" start_time="08:00:00" end_time="16:00:00" /></plan></person><person id="105"><plan selected="yes"><act type="h" x="-14444998.05901594" y="3995778.052492805" end_time="08:00:00" /><leg mode="car" /><act type="h" x="-14459146.407478219" y="4046103.5179449725" start_time="08:00:00" end_time="16:00:00" /></plan></person><person id="106"><plan selected="yes"><act type="h" x="-14445129.549937535" y="3995694.2781186937" end_time="08:00:00" /><leg mode="car" /><act type="h" x="-14454383.254292518" y="4014885.526286366" start_time="08:00:00" end_time="16:00:00" /></plan></person><person id="107"><plan selected="yes"><act type="h" x="-14441731.823546702" y="3989958.755069228" end_time="08:00:00" /><leg mode="car" /><act type="h" x="-14447873.483526172" y="4011433.092309967" start_time="08:00:00" end_time="16:00:00" /></plan></person><person id="108"><plan selected="yes"><act type="h" x="-14461401.861621827" y="4018522.1185051515" end_time="08:00:00" /><leg mode="car" /><act type="h" x="-14440352.171900101" y="3987351.954564252" start_time="08:00:00" end_time="16:00:00" /></plan></person><person id="109"><plan selected="yes"><act type="h" x="-14402314.235636378" y="3987691.2244851547" end_time="08:00:00" /><leg mode="car" /><act type="h" x="-14439766.304219043" y="3978225.2504493664" start_time="08:00:00" end_time="16:00:00" /></plan></person><person id="110"><plan selected="yes"><act type="h" x="-14440197.268137416" y="4007297.94551069" end_time="08:00:00" /><leg mode="car" /><act type="h" x="-14418675.606879124" y="3947883.9288903433" start_time="08:00:00" end_time="16:00:00" /></plan></person><person id="111"><plan selected="yes"><act type="h" x="-14366316.573141145" y="3921964.7778123617" end_time="08:00:00" /><leg mode="car" /><act type="h" x="-14437522.955265947" y="3978358.9519374585" start_time="08:00:00" end_time="16:00:00" /></plan></person><person id="112"><plan selected="yes"><act type="h" x="-14439951.65118496" y="3962721.2101478158" end_time="08:00:00" /><leg mode="car" /><act type="h" x="-14450545.729897935" y="4063697.7450586404" start_time="08:00:00" end_time="16:00:00" /></plan></person><person id="113"><plan selected="yes"><act type="h" x="-14429913.35891058" y="3986115.456423706" end_time="08:00:00" /><leg mode="car" /><act type="h" x="-14453798.507408021" y="4025903.333533217" start_time="08:00:00" end_time="16:00:00" /></plan></person><person id="114"><plan selected="yes"><act type="h" x="-14464485.727104342" y="3984452.5446555745" end_time="08:00:00" /><leg mode="car" /><act type="h" x="-14448326.312772958" y="3984909.218362183" start_time="08:00:00" end_time="16:00:00" /></plan></person><person id="115"><plan selected="yes"><act type="h" x="-14447722.561582988" y="3969826.6701680184" end_time="08:00:00" /><leg mode="car" /><act type="h" x="-14453828.460828735" y="4025927.407919012" start_time="08:00:00" end_time="16:00:00" /></plan></person><person id="116"><plan selected="yes"><act type="h" x="-14437897.284239214" y="3986125.7919279244" end_time="08:00:00" /><leg mode="car" /><act type="h" x="-14480774.687289372" y="3974144.5543503026" start_time="08:00:00" end_time="16:00:00" /></plan></per