<?xml version="1.0" ?>
<!DOCTYPE plans SYSTEM "http://www.matsim.org/files/dtd/plans_v4.dtd">
<plans xml:lang="de-CH"><person id="1"><plan selected="yes"><act type="h" x="-14426001.260983922" y="4021531.789082138" end_time="01:00:00" /><leg mode="car" /><act type="h" x="-14410273.647562297" y="3952931.2419067076" start_time="01:00:00" end_time="09:00:00" /></plan></person><person id="2"><plan selected="yes"><act type="h" x="-14445088.704753798" y="3995731.689789929" end_time="01:00:00" /><leg mode="car" /><act type="h" x="-14398444.5022523" y="3960520.5983772166" start_time="01:00:00" end_time="09:00:00" /></plan></person><person id="3"><plan selected="yes"><act type="h" x="-14429158.888428384" y="3982911.0201434446" end_time="02:00:00" /><leg mode="car" /><act type="h" x="-14439902.426485403" y="3984339.330181149" start_time="02:00:00" end_time="10:00:00" /></plan></person><person id="4"><plan selected="yes"><act type="h" x="-14442252.868566578" y="4012544.748667335" end_time="02:00:00" /><leg mode="car" /><act type="h" x="-14441097.225169972" y="3989074.783402205" start_time="02:00:00" end_time="10:00:00" /></plan></person><person id="5"><plan selected="yes"><act type="h" x="-14445317.196589729" y="3990227.9873594726" end_time="02:00:00" /><leg mode="car" /><act type="h" x="-14459926.913429677" y="4052785.7380482927" start_time="02:00:00" end_time="10:00:00" /></plan></person><person id="6"><plan selected="yes"><act type="h" x="-14437513.31767256" y="3978429.3369538332" end_time="02:00:00" /><leg mode="car" /><act type="h" x="-14451843.39930899" y="4024390.9090678194" start_time="02:00:00" end_time="10:00:00" /></plan></person><person id="7"><plan selected="yes"><act type="h" x="-14445373.526663357" y="3993360.2330809943" end_time="03:00:00" /><leg mode="car" /><act type="h" x="-14403638.62234243" y="4018393.6092580673" start_time="03:00:00" end_time="11:00:00" /></plan></person><person id="8"><plan selected="yes"><act type="h" x="-14475616.077257048" y="4072911.6317016124" end_time="03:00:00" /><leg mode="car" /><act type="h" x="-14438091.495161455" y="4074499.5547213373" start_time="03:00:00" end_time="11:00:00" /></plan></person><person id="9"><plan selected="yes"><act type="h" x="-14425693.684700057" y="3987716.5043844655" end_time="03:00:00" /><leg mode="car" /><act type="h" x="-14443177.816455007" y="4022999.581892916" start_time="03:00:00" end_time="11:00:00" /></plan></person><person id="10"><plan selected="yes"><act type="h" x="-14442190.826924473" y="4002962.9508917057" end_time="03:00:00" /><leg mode="car" /><act type="h" x="-14431544.22432414" y="3957582.818638872" start_time="03:00:00" end_time="11:00:00" /></plan></person><person id="11"><plan selected="yes"><act type="h" x="-14448954.55240525" y="3986055.2249154537" end_time="03:00:00" /><leg mode="car" /><act type="h" x="-14474690.706882564" y="4076023.347293009" start_time="03:00:00" end_time="11:00:00" /></plan></person><person id="12"><plan selected="yes"><act type="h" x="-14446347.970607124" y="3966262.9381481726" end_time="03:00:00" /><leg mode="car" /><act type="h" x="-14447658.86922308" y="3968355.066598275" start_time="03:00:00" end_time="11:00:00" /></plan></person><person id="13"><plan selected="yes"><act type="h" x="-14453366.663641645" y="3981129.076920227" end_time="03:00:00" /><leg mode="car" /><act type="h" x="-14444410.906220868" y="3979343.273724496" start_time="03:00:00" end_time="11:00:00" /></plan></person><person id="14"><plan selected="yes"><act type="h" x="-14411947.409983292" y="3941952.3013000186" end_time="03:00:00" /><leg mode="car" /><act type="h" x="-14454749.896584308" y="3978276.9618450264" start_time="03:00:00" end_time="11:00:00" /></plan></person><person id="15"><plan selected="yes"><act type="h" x="-14439444.39276585" y="3966592.2961697644" end_time="03:00:00" /><leg mode="car" /><act type="h" x="-14449369.143765986" y="3989586.6097435965" start_time="03:00:00" end_time="11:00:00" /></plan></person><person id="16"><plan selected="yes"><act type="h" x="-14439521.307407832" y="3961887.403697859" end_time="03:00:00" /><leg mode="car" /><act type="h" x="-14448224.661841415" y="3983361.3721987023" start_time="03:00:00" end_time="11:00:00" /></plan></person><person id="17"><plan selected="yes"><act type="h" x="-14438993.568723066" y="3964559.3497512294" end_time="03:00:00" /><leg mode="car" /><act type="h" x="-14445399.355586283" y="3986126.549372447" start_time="03:00:00" end_time="11:00:00" /></plan></person><person id="18"><plan selected="yes"><act type="h" x="-14386424.230329677" y="4000409.302879414" end_time="04:00:00" /><leg mode="car" /><act type="h" x="-14453645.830220832" y="3985714.935006196" start_time="04:00:00" end_time="12:00:00" /></plan></person><person id="19"><plan selected="yes"><act type="h" x="-14440677.328955457" y="4072433.128286892" end_time="04:00:00" /><leg mode="car" /><act type="h" x="-14440383.722053036" y="3986452.032324322" start_time="04:00:00" end_time="12:00:00" /></plan></person><person id="20"><plan selected="yes"><act type="h" x="-14369380.475910535" y="3952581.4631154803" end_time="04:00:00" /><leg mode="car" /><act type="h" x="-14452122.18212909" y="4028230.5546885096" start_time="04:00:00" end_time="12:00:00" /></plan></person><person id="21"><plan selected="yes"><act type="h" x="-14475402.045390027" y="4074484.1093198094" end_time="04:00:00" /><leg mode="car" /><act type="h" x="-14442529.82162747" y="4011922.19363252" start_time="04:00:00" end_time="12:00:00" /></plan></person><person id="22"><plan selected="yes"><act type="h" x="-14439103.228119154" y="3974552.669715512" end_time="04:00:00" /><leg mode="car" /><act type="h" x="-14439443.660524298" y="3966534.439928646" start_time="04:00:00" end_time="12:00:00" /></plan></person><person id="23"><plan selected="yes"><act type="h" x="-14447156.304345913" y="3975882.2180464296" end_time="04:00:00" /><leg mode="car" /><act type="h" x="-14446248.724101823" y="4010462.7929567294" start_time="04:00:00" end_time="12:00:00" /></plan></person><person id="24"><plan selected="yes"><act type="h" x="-14438850.035493461" y="3971924.563249721" end_time="04:00:00" /><leg mode="car" /><act type="h" x="-14439055.857017552" y="3973278.4106650404" start_time="04:00:00" end_time="12:00:00" /></plan></person><person id="25"><plan selected="yes"><act type="h" x="-14469968.991085244" y="4069295.2265859637" end_time="04:00:00" /><leg mode="car" /><act type="h" x="-14448762.970875436" y="4056712.320634912" start_time="04:00:00" end_time="12:00:00" /></plan></person><person id="26"><plan selected="yes"><act type="h" x="-14451257.952968538" y="4018211.9234979795" end_time="04:00:00" /><leg mode="car" /><act type="h" x="-14435847.13417625" y="3959631.584507815" start_time="04:00:00" end_time="12:00:00" /></plan></person><person id="27"><plan selected="yes"><act type="h" x="-14400578.495672055" y="3988688.7314303685" end_time="04:00:00" /><leg mode="car" /><act type="h" x="-14442401.746657474" y="3966412.4403295214" start_time="04:00:00" end_time="12:00:00" /></plan></person><person id="28"><plan selected="yes"><act type="h" x="-14440604.41754463" y="4007530.007005425" end_time="04:00:00" /><leg mode="car" /><act type="h" x="-14440184.308806151" y="4072772.2363916533" start_time="04:00:00" end_time="12:00:00" /></plan></person><person id="29"><plan selected="yes"><act type="h" x="-14440564.61986375" y="3988473.0541087748" end_time="04:00:00" /><leg mode="car" /><act type="h" x="-14419112.197231911" y="3949619.4567457023" start_time="04:00:00" end_time="12:00:00" /></plan></person><person id="30"><plan selected="yes"><act type="h" x="-14459946.429392792" y="4047665.786786918" end_time="04:00:00" /><leg mode="car" /><act type="h" x="-14468282.593042323" y="4078616.172053036" start_time="04:00:00" end_time="12:00:00" /></plan></person><person id="31"><plan selected="yes"><act type="h" x="-14430656.630239796" y="3956668.962090462" end_time="04:00:00" /><leg mode="car" /><act type="h" x="-14439858.22651858" y="3984350.0148159713" start_time="04:00:00" end_time="12:00:00" /></plan></person><person id="32"><plan selected="yes"><act type="h" x="-14454130.143757114" y="4014856.621434096" end_time="04:00:00" /><leg mode="car" /><act type="h" x="-14439104.277672857" y="3966837.829180351" start_time="04:00:00" end_time="12:00:00" /></plan></person><person id="33"><plan selected="yes"><act type="h" x="-14373281.668384517" y="3922228.970550778" end_time="04:00:00" /><leg mode="car" /><act type="h" x="-14395390.953079341" y="3927105.5768258884" start_time="04:00:00" end_time="12:00:00" /></plan></person><person id="34"><plan selected="yes"><act type="h" x="-14437876.761730634" y="3965686.3300320017" end_time="04:00:00" /><leg mode="car" /><act type="h" x="-14455039.609341526" y="4021172.9738760456" start_time="04:00:00" end_time="12:00:00" /></plan></person><person id="35"><plan selected="yes"><act type="h" x="-14405555.441064056" y="3954946.068179259" end_time="04:00:00" /><leg mode="car" /><act type="h" x="-14439859.579433503" y="3983876.626760906" start_time="04:00:00" end_time="12:00:00" /></plan></person><person id="36"><plan selected="yes"><act type="h" x="-14458976.296450969" y="3984919.0284330864" end_time="04:00:00" /><leg mode="car" /><act type="h" x="-14446462.857612489" y="4013777.450074587" start_time="04:00:00" end_time="12:00:00" /></plan></person><person id="37"><plan selected="yes"><act type="h" x="-14438864.986439819" y="3971957.970771513" end_time="04:00:00" /><leg mode="car" /><act type="h" x="-14445029.61370922" y="3981217.774510887" start_time="04:00:00" end_time="12:00:00" /></plan></person><person id="38"><plan selected="yes"><act type="h" x="-14411905.235618914" y="3948018.877976986" end_time="05:00:00" /><leg mode="car" /><act type="h" x="-14397390.445124667" y="3989648.397360464" start_time="05:00:00" end_time="13:00:00" /></plan></person><person id="39"><plan selected="yes"><act type="h" x="-14453739.419151135" y="4026695.1273709023" end_time="05:00:00" /><leg mode="car" /><act type="h" x="-14398068.929190429" y="3983339.5583497025" start_time="05:00:00" end_time="13:00:00" /></plan></person><person id="40"><plan selected="yes"><act type="h" x="-14439682.081302943" y="3978002.853842153" end_time="05:00:00" /><leg mode="car" /><act type="h" x="-14444016.836538523" y="3990019.0940037835" start_time="05:00:00" end_time="13:00:00" /></plan></person><person id="41"><plan selected="yes"><act type="h" x="-14427653.700157594" y="3986385.831364398" end_time="05:00:00" /><leg mode="car" /><act type="h" x="-14398113.660451984" y="3960769.702079858" start_time="05:00:00" end_time="13:00:00" /></plan></person><person id="42"><plan selected="yes"><act type="h" x="-14410270.687901337" y="3937855.55429219" end_time="05:00:00" /><leg mode="car" /><act type="h" x="-14438349.347234486" y="3986062.734894347" start_time="05:00:00" end_time="13:00:00" /></plan></person><person id="43"><plan selected="yes"><act type="h" x="-14438658.632285412" y="3971798.339405455" end_time="05:00:00" /><leg mode="car" /><act type="h" x="-14450938.331234496" y="4013255.870217082" start_time="05:00:00" end_time="13:00:00" /></plan></person><person id="44"><plan selected="yes"><act type="h" x="-14457516.559723642" y="4040287.6447979254" end_time="05:00:00" /><leg mode="car" /><act type="h" x="-14448806.293203566" y="3985487.53242923" start_time="05:00:00" end_time="13:00:00" /></plan></person><person id="45"><plan selected="yes"><act type="h" x="-14412059.57441334" y="3948718.0961128655" end_time="05:00:00" /><leg mode="car" /><act type="h" x="-14441185.73895728" y="3991556.267088659" start_time="05:00:00" end_time="13:00:00" /></plan></person><person id="46"><plan selected="yes"><act type="h" x="-14449620.241752664" y="4054459.5518627223" end_time="05:00:00" /><leg mode="car" /><act type="h" x="-14428069.005014807" y="3955839.902453235" start_time="05:00:00" end_time="13:00:00" /></plan></person><person id="47"><plan selected="yes"><act type="h" x="-14426249.310388876" y="3987407.8199153603" end_time="05:00:00" /><leg mode="car" /><act type="h" x="-14391000.266598374" y="3996631.460454448" start_time="05:00:00" end_time="13:00:00" /></plan></person><person id="48"><plan selected="yes"><act type="h" x="-14459847.000711316" y="4052433.1458000215" end_time="05:00:00" /><leg mode="car" /><act type="h" x="-14438660.730997942" y="3971801.698602118" start_time="05:00:00" end_time="13:00:00" /></plan></person><person id="49"><plan selected="yes"><act type="h" x="-14442631.025491452" y="3993620.4791914206" end_time="05:00:00" /><leg mode="car" /><act type="h" x="-14440029.084100138" y="3985956.1216407823" start_time="05:00:00" end_time="13:00:00" /></plan></person><person id="50"><plan selected="yes"><act type="h" x="-14442359.452938039" y="3966423.128145901" end_time="05:00:00" /><leg mode="car" /><act type="h" x="-14437646.71735544" y="3966981.7256683703" start_time="05:00:00" end_time="13:00:00" /></plan></person><person id="51"><plan selected="yes"><act type="h" x="-14450112.83359184" y="4057596.836245274" end_time="05:00:00" /><leg mode="car" /><act type="h" x="-14447729.765991615" y="3969629.531639238" start_time="05:00:00" end_time="13:00:00" /></plan></person><person id="52"><plan selected="yes"><act type="h" x="-14410273.877261568" y="3935002.1560654226" end_time="05:00:00" /><leg mode="car" /><act type="h" x="-14454341.102312641" y="3976406.758337876" start_time="05:00:00" end_time="13:00:00" /></plan></person><person id="53"><plan selected="yes"><act type="h" x="-14440276.359216241" y="3986327.747393259" end_time="05:00:00" /><leg mode="car" /><act type="h" x="-14415735.843599588" y="3945303.7845809124" start_time="05:00:00" end_time="13:00:00" /></plan></person><person id="54"><plan selected="yes"><act type="h" x="-14448002.494196448" y="4015582.4226778992" end_time="05:00:00" /><leg mode="car" /><act type="h" x="-14419769.152263034" y="3952000.4766600877" start_time="05:00:00" end_time="13:00:00" /></plan></person><person id="55"><plan selected="yes"><act type="h" x="-14434801.607463704" y="3978460.581049218" end_time="05:00:00" /><leg mode="car" /><act type="h" x="-14448023.354743449" y="3979877.8251011777" start_time="05:00:00" end_time="13:00:00" /></plan></person><person id="56"><plan selected="yes"><act type="h" x="-14444291.580176584" y="4069155.9847920365" end_time="05:00:00" /><leg mode="car" /><act type="h" x="-14475780.821922028" y="4073186.2701708814" start_time="05:00:00" end_time="13:00:00" /></plan></person><person id="57"><plan selected="yes"><act type="h" x="-14435247.803795462" y="3986406.2253782814" end_time="05:00:00" /><leg mode="car" /><act type="h" x="-14461500.44999546" y="4057034.423045689" start_time="05:00:00" end_time="13:00:00" /></plan></person><person id="58"><plan selected="yes"><act type="h" x="-14441455.741933325" y="3989533.7853992726" end_time="05:00:00" /><leg mode="car" /><act type="h" x="-14441142.04566331" y="3986514.031300261" start_time="05:00:00" end_time="13:00:00" /></plan></person><person id="59"><plan selected="yes"><act type="h" x="-14410057.01203751" y="3934775.516378919" end_time="05:00:00" /><leg mode="car" /><act type="h" x="-14409031.986431679" y="3952991.1643297463" start_time="05:00:00" end_time="13:00:00" /></plan></person><person id="60"><plan selected="yes"><act type="h" x="-14453315.289535433" y="3983979.08426519" end_time="05:00:00" /><leg mode="car" /><act type="h" x="-14444986.188443802" y="3989981.489579533" start_time="05:00:00" end_time="13:00:00" /></plan></person><person id="61"><plan selected="yes"><act type="h" x="-14447920.68995276" y="4015543.0741363694" end_time="05:00:00" /><leg mode="car" /><act type="h" x="-14393410.241423935" y="3994591.7895991113" start_time="05:00:00" end_time="13:00:00" /></plan></person><person id="62"><plan selected="yes"><act type="h" x="-14456397.458289899" y="4053057.386664267" end_time="05:00:00" /><leg mode="car" /><act type="h" x="-14465493.27774881" y="4065646.3973949477" start_time="05:00:00" end_time="13:00:00" /></plan></person><person id="63"><plan selected="yes"><act type="h" x="-14448850.83174406" y="4054671.4637608733" end_time="05:00:00" /><leg mode="car" /><act type="h" x="-14448900.470249802" y="4063882.3905341756" start_time="05:00:00" end_time="13:00:00" /></plan></person><person id="64"><plan selected="yes"><act type="h" x="-14401360.390358651" y="3958425.2228571908" end_time="05:00:00" /><leg mode="car" /><act type="h" x="-14447134.137299618" y="3972323.5881678415" start_time="05:00:00" end_time="13:00:00" /></plan></person><person id="65"><plan selected="yes"><act type="h" x="-14406702.402367909" y="3954237.8084354564" end_time="05:00:00" /><leg mode="car" /><act type="h" x="-14451990.118350593" y="4028339.2158811735" start_time="05:00:00" end_time="13:00:00" /></plan></person><person id="66"><plan selected="yes"><act type="h" x="-14410141.765399877" y="3936755.8532844824" end_time="05:00:00" /><leg mode="car" /><act type="h" x="-14394767.852492282" y="3993388.033827275" start_time="05:00:00" end_time="13:00:00" /></plan></person><person id="67"><plan selected="yes"><act type="h" x="-14447070.011643305" y="3971666.7925965395" end_time="05:00:00" /><leg mode="car" /><act type="h" x="-14442952.408685712" y="4022519.4719352177" start_time="05:00:00" end_time="13:00:00" /></plan></person><person id="68"><plan selected="yes"><act type="h" x="-14449947.666938616" y="4012929.903694228" end_time="05:00:00" /><leg mode="car" /><act type="h" x="-14469860.954698758" y="4069196.417425245" start_time="05:00:00" end_time="13:00:00" /></plan></person><person id="69"><plan selected="yes"><act type="h" x="-14439890.180279527" y="3984306.9951289687" end_time="05:00:00" /><leg mode="car" /><act type="h" x="-14438112.617263693" y="4075396.9388917508" start_time="05:00:00" end_time="13:00:00" /></plan></person><person id="70"><plan selected="yes"><act type="h" x="-14480264.007993296" y="3978812.9051522715" end_time="05:00:00" /><leg mode="car" /><act type="h" x="-14429608.479920367" y="3986019.403548942" start_time="05:00:00" end_time="13:00:00" /></plan></person><person id="71"><plan selected="yes"><act type="h" x="-14442782.02946426" y="4019267.0334846578" end_time="05:00:00" /><leg mode="car" /><act type="h" x="-14461224.8825427" y="4018375.734501848" start_time="05:00:00" end_time="13:00:00" /></plan></person><person id="72"><plan selected="yes"><act type="h" x="-14402130.037121765" y="4017467.407045625" end_time="05:00:00" /><leg mode="car" /><act type="h" x="-14416650.911863778" y="3951053.5941308774" start_time="05:00:00" end_time="13:00:00" /></plan></person><person id="73"><plan selected="yes"><act type="h" x="-14412725.12356211" y="4017173.5684778504" end_time="06:00:00" /><leg mode="car" /><act type="h" x="-14441653.780361041" y="3990041.711815574" start_time="06:00:00" end_time="14:00:00" /></plan></person><person id="74"><plan selected="yes"><act type="h" x="-14410195.351843799" y="3990901.570090087" end_time="06:00:00" /><leg mode="car" /><act type="h" x="-14358219.457351385" y="3920280.2945644567" start_time="06:00:00" end_time="14:00:00" /></plan></person><person id="75"><plan selected="yes"><act type="h" x="-14439102.089075875" y="3973985.829421335" end_time="06:00:00" /><leg mode="car" /><act type="h" x="-14444670.93975133" y="3990053.9908288796" start_time="06:00:00" end_time="14:00:00" /></plan></person><person id="76"><plan selected="yes"><act type="h" x="-14443624.743864441" y="4023005.012070551" end_time="06:00:00" /><leg mode="car" /><act type="h" x="-14453265.82447429" y="3983265.8505502497" start_time="06:00:00" end_time="14:00:00" /></plan></person><person id="77"><plan selected="yes"><act type="h" x="-14408521.119014364" y="3933521.5267150532" end_time="06:00:00" /><leg mode="car" /><act type="h" x="-14437270.989947464" y="3960518.091174419" start_time="06:00:00" end_time="14:00:00" /></plan></person><person id="78"><plan selected="yes"><act type="h" x="-14459010.26515798" y="3984876.167369113" end_time="06:00:00" /><leg mode="car" /><act type="h" x="-14439941.588482942" y="4004523.9563760534" start_time="06:00:00" end_time="14:00:00" /></plan></person><person id="79"><plan selected="yes"><act type="h" x="-14440773.731010748" y="3986504.97331808" end_time="06:00:00" /><leg mode="car" /><act type="h" x="-14443301.735456849" y="4022894.4833627995" start_time="06:00:00" end_time="14:00:00" /></plan></person><person id="80"><plan selected="yes"><act type="h" x="-14440452.304832239" y="3986509.5644282987" end_time="06:00:00" /><leg mode="car" /><act type="h" x="-14409806.149738502" y="3934613.024803791" start_time="06:00:00" end_time="14:00:00" /></plan></person><person id="81"><plan selected="yes"><act type="h" x="-14400131.44383374" y="3959694.354798729" end_time="06:00:00" /><leg mode="car" /><act type="h" x="-14454470.619076785" y="4076579.4888035143" start_time="06:00:00" end_time="14:00:00" /></plan></person><person id="82"><plan selected="yes"><act type="h" x="-14444228.717216466" y="4008049.0370370205" end_time="06:00:00" /><leg mode="car" /><act type="h" x="-14410530.907526009" y="3952704.0469601145" start_time="06:00:00" end_time="14:00:00" /></plan></person><person id="83"><plan selected="yes"><act type="h" x="-14436449.701244274" y="3986259.6399070444" end_time="06:00:00" /><leg mode="car" /><act type="h" x="-14411767.604574269" y="3942523.8106119335" start_time="06:00:00" end_time="14:00:00" /></plan></person><person id="84"><plan selected="yes"><act type="h" x="-14397311.093340809" y="3989509.1253657867" end_time="06:00:00" /><leg mode="car" /><act type="h" x="-14444970.576018428" y="3986226.2816775204" start_time="06:00:00" end_time="14:00:00" /></plan></person><person id="85"><plan selected="yes"><act type="h" x="-14441492.868013758" y="3989679.0933765257" end_time="06:00:00" /><leg mode="car" /><act type="h" x="-14429764.375029357" y="3956255.2599435686" start_time="06:00:00" end_time="14:00:00" /></plan></person><person id="86"><plan selected="yes"><act type="h" x="-14406092.131721403" y="3954714.4090155135" end_time="06:00:00" /><leg mode="car" /><act type="h" x="-14445281.454134485" y="3991764.198180614" start_time="06:00:00" end_time="14:00:00" /></plan></person><person id="87"><plan selected="yes"><act type="h" x="-14439193.76982948" y="4075921.6782966973" end_time="06:00:00" /><leg mode="car" /><act type="h" x="-14447652.327232897" y="3968530.9522622563" start_time="06:00:00" end_time="14:00:00" /></plan></person><person id="88"><plan selected="yes"><act type="h" x="-14355009.73760289" y="3920887.0972580872" end_time="06:00:00" /><leg mode="car" /><act type="h" x="-14453549.32740501" y="4025673.882302148" start_time="06:00:00" end_time="14:00:00" /></plan></person><person id="89"><plan selected="yes"><act type="h" x="-14439781.213860359" y="3978569.653217408" end_time="06:00:00" /><leg mode="car" /><act type="h" x="-14405460.210322816" y="3954977.043580744" start_time="06:00:00" end_time="14:00:00" /></plan></person><person id="90"><plan selected="yes"><act type="h" x="-14427574.999619806" y="3986517.417985309" end_time="06:00:00" /><leg mode="car" /><act type="h" x="-14442635.67060832" y="3966435.872047041" start_time="06:00:00" end_time="14:00:00" /></plan></person><person id="91"><plan selected="yes"><act type="h" x="-14449429.92453991" y="3989568.3780842265" end_time="06:00:00" /><leg mode="car" /><act type="h" x="-14439727.878366463" y="3976129.385013103" start_time="06:00:00" end_time="14:00:00" /></plan></person><person id="92"><plan selected="yes"><act type="h" x="-14386038.97722731" y="3968014.94098839" end_time="06:00:00" /><leg mode="car" /><act type="h" x="-14429755.18748929" y="3980119.3674399448" start_time="06:00:00" end_time="14:00:00" /></plan></person><person id="93"><plan selected="yes"><act type="h" x="-14448840.50011959" y="3986245.6736277747" end_time="06:00:00" /><leg mode="car" /><act type="h" x="-14448418.355131585" y="3986200.0553715485" start_time="06:00:00" end_time="14:00:00" /></plan></person><person id="94"><plan selected="yes"><act type="h" x="-14443816.045796672" y="4022962.0846055145" end_time="06:00:00" /><leg mode="car" /><act type="h" x="-14388870.322392289" y="3924204.7918426506" start_time="06:00:00" end_time="14:00:00" /></plan></person><person id="95"><plan selected="yes"><act type="h" x="-14387693.694822082" y="3997491.264401936" end_time="06:00:00" /><leg mode="car" /><act type="h" x="-14447413.106060911" y="3978014.586652449" start_time="06:00:00" end_time="14:00:00" /></plan></person><person id="96"><plan selected="yes"><act type="h" x="-14445262.730409395" y="3986211.015056451" end_time="06:00:00" /><leg mode="car" /><act type="h" x="-14443515.372027978" y="4022966.174600168" start_time="06:00:00" end_time="14:00:00" /></plan></person><person id="97"><plan selected="yes"><act type="h" x="-14404910.633735266" y="3955236.1294937353" end_time="06:00:00" /><leg mode="car" /><act type="h" x="-14411803.015563387" y="3942353.226938517" start_time="06:00:00" end_time="14:00:00" /></plan></person><person id="98"><plan selected="yes"><act type="h" x="-14448175.46306311" y="3983530.9273202126" end_time="06:00:00" /><leg mode="car" /><act type="h" x="-14442900.453085536" y="3994188.6129855295" start_time="06:00:00" end_time="14:00:00" /></plan></person><person id="99"><plan selected="yes"><act type="h" x="-14445039.024251275" y="3988669.3701593014" end_time="06:00:00" /><leg mode="car" /><act type="h" x="-14448918.415288603" y="3986205.864043307" start_time="06:00:00" end_time="14:00:00" /></plan></person><person id="100"><plan selected="yes"><act type="h" x="-14453700.889084423" y="4025712.7030010484" end_time="06:00:00" /><leg mode="car" /><act type="h" x="-14445387.83916151" y="3993638.129540618" start_time="06:00:00" end_time="14:00:00" /></plan></person><person id="101"><plan selected="yes"><act type="h" x="-14437777.73619907" y="3969083.0670367694" end_time="06:00:00" /><leg mode="car" /><act type="h" x="-14443979.72548739" y="3986237.6129503245" start_time="06:00:00" end_time="14:00:00" /></plan></person><person id="102"><plan selected="yes"><act type="h" x="-14390580.071249373" y="3924143.8237087424" end_time="06:00:00" /><leg mode="car" /><act type="h" x="-14453878.856282545" y="4025799.948615673" start_time="06:00:00" end_time="14:00:00" /></plan></person><person id="103"><plan selected="yes"><act type="h" x="-14439904.783264646" y="3984363.4228651454" end_time="06:00:00" /><leg mode="car" /><act type="h" x="-14436661.08875166" y="3960101.512461419" start_time="06:00:00" end_time="14:00:00" /></plan></person><person id="104"><plan selected="yes"><act type="h" x="-14470365.38997172" y="4069297.6859248243" end_time="06:00:00" /><leg mode="car" /><act type="h" x="-14462973.871479355" y="4062370.9835058316" start_time="06:00:00" end_time="14:00:00" /></plan></person><person id="105"><plan selected="yes"><act type="h" x="-14451507.548983088" y="4018524.7351800604" end_time="06:00:00" /><leg mode="car" /><act type="h" x="-14458154.974460324" y="4015795.328511693" start_time="06:00:00" end_time="14:00:00" /></plan></person><person id="106"><plan selected="yes"><act type="h" x="-14390667.88512811" y="3980297.0803946117" end_time="06:00:00" /><leg mode="car" /><act type="h" x="-14420546.33453209" y="3952400.8696338376" start_time="06:00:00" end_time="14:00:00" /></plan></person><person id="107"><plan selected="yes"><act type="h" x="-14393330.13107545" y="3985097.309406792" end_time="06:00:00" /><leg mode="car" /><act type="h" x="-14464747.11464932" y="3984491.5081544654" start_time="06:00:00" end_time="14:00:00" /></plan></person><person id="108"><plan selected="yes"><act type="h" x="-14450923.329381471" y="3986041.1070627226" end_time="06:00:00" /><leg mode="car" /><act type="h" x="-14453112.90758185" y="4025232.736341718" start_time="06:00:00" end_time="14:00:00" /></plan></person><person id="109"><plan selected="yes"><act type="h" x="-14427169.04431446" y="3955515.106552635" end_time="06:00:00" /><leg mode="car" /><act type="h" x="-14425949.318092762" y="3987518.978353381" start_time="06:00:00" end_time="14:00:00" /></plan></person><person id="110"><plan selected="yes"><act type="h" x="-14387663.223690953" y="4005389.495732473" end_time="06:00:00" /><leg mode="car" /><act type="h" x="-14410325.141161377" y="3940519.068650961" start_time="06:00:00" end_time="14:00:00" /></plan></person><person id="111"><plan selected="yes"><act type="h" x="-14459558.326935042" y="4016398.2835554234" end_time="06:00:00" /><leg mode="car" /><act type="h" x="-14459822.610645365" y="3984748.032520321" start_time="06:00:00" end_time="14:00:00" /></plan></person><person id="112"><plan selected="yes"><act type="h" x="-14453364.721586684" y="3985584.415036658" end_time="06:00:00" /><leg mode="car" /><act type="h" x="-14427850.473190546" y="4022830.73016594" start_time="06:00:00" end_time="14:00:00" /></plan></person><person id="113"><plan selected="yes"><act type="h" x="-14448133.83739018" y="3984196.124825415" end_time="06:00:00" /><leg mode="car" /><act type="h" x="-14402572.932525532" y="4018058.1572977887" start_time="06:00:00" end_time="14:00:00" /></plan></person><person id="114"><plan selected="yes"><act type="h" x="-14426188.546878854" y="4021599.576273026" end_time="06:00:00" /><leg mode="car" /><act type="h" x="-14441535.838062858" y="4023021.9146083603" start_time="06:00:00" end_time="14:00:00" /></plan></person><person id="115"><plan selected="yes"><act type="h" x="-14448105.010825524" y="4076307.3275394137" end_time="06:00:00" /><leg mode="car" /><act type="h" x="-14407232.937518196" y="3953973.0752522214" start_time="06:00:00" end_time="14:00:00" /></plan></person><person id="116"><plan selected="yes"><act type="h" x="-14398550.60571782" y="4015325.191100574" end_time="06:00:00" /><leg mode="car" /><act type="h" x="-14452913.626787364" y="3975010.0947381924" start_time="06:00:00" end_time="14:00:00" /></plan></person