<?xml version="1.0" ?>
<!DOCTYPE plans SYSTEM "http://www.matsim.org/files/dtd/plans_v4.dtd">
<plans xml:lang="de-CH"><person id="1"><plan selected="yes"><act type="h" x="-14447085.038766723" y="3971304.8200214626" end_time="01:00:00" /><leg mode="car" /><act type="h" x="-14389137.216610359" y="3924187.204259085" start_time="01:00:00" end_time="09:00:00" /></plan></person><person id="2"><plan selected="yes"><act type="h" x="-14429021.546798702" y="3986006.6769581772" end_time="01:00:00" /><leg mode="car" /><act type="h" x="-14416514.244946282" y="3951062.719031261" start_time="01:00:00" end_time="09:00:00" /></plan></person><person id="3"><plan selected="yes"><act type="h" x="-14454916.574113239" y="4021072.177831914" end_time="01:00:00" /><leg mode="car" /><act type="h" x="-14443256.795274643" y="4022899.8481659014" start_time="01:00:00" end_time="09:00:00" /></plan></person><person id="4"><plan selected="yes"><act type="h" x="-14447083.962730028" y="3971650.445915676" end_time="01:00:00" /><leg mode="car" /><act type="h" x="-14418897.320839353" y="3948079.1715864874" start_time="01:00:00" end_time="09:00:00" /></plan></person><person id="5"><plan selected="yes"><act type="h" x="-14443991.471518502" y="4008009.2042699633" end_time="02:00:00" /><leg mode="car" /><act type="h" x="-14480630.675319523" y="3970659.9252313343" start_time="02:00:00" end_time="10:00:00" /></plan></person><person id="6"><plan selected="yes"><act type="h" x="-14448917.444474751" y="3986212.7772128866" end_time="02:00:00" /><leg mode="car" /><act type="h" x="-14428040.718597347" y="3986171.7015440892" start_time="02:00:00" end_time="10:00:00" /></plan></person><person id="7"><plan selected="yes"><act type="h" x="-14460312.949474813" y="4017271.3428570596" end_time="02:00:00" /><leg mode="car" /><act type="h" x="-14406897.637787921" y="3991239.4760699538" start_time="02:00:00" end_time="10:00:00" /></plan></person><person id="8"><plan selected="yes"><act type="h" x="-14460004.95896185" y="4047789.838311254" end_time="02:00:00" /><leg mode="car" /><act type="h" x="-14394324.790202294" y="3986480.9249237706" start_time="02:00:00" end_time="10:00:00" /></plan></person><person id="9"><plan selected="yes"><act type="h" x="-14392201.063887699" y="3924537.5650159847" end_time="02:00:00" /><leg mode="car" /><act type="h" x="-14394642.386736948" y="3993224.745555822" start_time="02:00:00" end_time="10:00:00" /></plan></person><person id="10"><plan selected="yes"><act type="h" x="-14392348.117081447" y="4010788.1295362683" end_time="02:00:00" /><leg mode="car" /><act type="h" x="-14465007.497242993" y="4065049.6329028658" start_time="02:00:00" end_time="10:00:00" /></plan></person><person id="11"><plan selected="yes"><act type="h" x="-14402902.128910191" y="4018257.402796076" end_time="02:00:00" /><leg mode="car" /><act type="h" x="-14439822.492518011" y="3976615.102419396" start_time="02:00:00" end_time="10:00:00" /></plan></person><person id="12"><plan selected="yes"><act type="h" x="-14447470.451724667" y="3978839.578610154" end_time="02:00:00" /><leg mode="car" /><act type="h" x="-14439660.678309357" y="3977728.3585808394" start_time="02:00:00" end_time="10:00:00" /></plan></person><person id="13"><plan selected="yes"><act type="h" x="-14441679.060949096" y="3997666.12354296" end_time="03:00:00" /><leg mode="car" /><act type="h" x="-14363440.797269303" y="3948969.9203760517" start_time="03:00:00" end_time="11:00:00" /></plan></person><person id="14"><plan selected="yes"><act type="h" x="-14411876.799603011" y="3945270.4741842817" end_time="03:00:00" /><leg mode="car" /><act type="h" x="-14422061.978666332" y="3953115.6723965323" start_time="03:00:00" end_time="11:00:00" /></plan></person><person id="15"><plan selected="yes"><act type="h" x="-14445069.151613215" y="4009917.664220797" end_time="03:00:00" /><leg mode="car" /><act type="h" x="-14447947.741643528" y="4015522.8896229183" start_time="03:00:00" end_time="11:00:00" /></plan></person><person id="16"><plan selected="yes"><act type="h" x="-14439536.465089329" y="4075906.255651168" end_time="03:00:00" /><leg mode="car" /><act type="h" x="-14391681.460040512" y="3981150.181962561" start_time="03:00:00" end_time="11:00:00" /></plan></person><person id="17"><plan selected="yes"><act type="h" x="-14444899.280183034" y="3990044.7609552406" end_time="03:00:00" /><leg mode="car" /><act type="h" x="-14440560.261522785" y="3986475.4838960846" start_time="03:00:00" end_time="11:00:00" /></plan></person><person id="18"><plan selected="yes"><act type="h" x="-14454997.359659834" y="4024256.0659144777" end_time="04:00:00" /><leg mode="car" /><act type="h" x="-14441876.747455139" y="3996582.1822127854" start_time="04:00:00" end_time="12:00:00" /></plan></person><person id="19"><plan selected="yes"><act type="h" x="-14447138.564988019" y="3971655.0254085865" end_time="04:00:00" /><leg mode="car" /><act type="h" x="-14410043.061995868" y="3934764.648052467" start_time="04:00:00" end_time="12:00:00" /></plan></person><person id="20"><plan selected="yes"><act type="h" x="-14411793.22124294" y="3943849.5999598824" end_time="04:00:00" /><leg mode="car" /><act type="h" x="-14442930.90503691" y="3996142.1612800416" start_time="04:00:00" end_time="12:00:00" /></plan></person><person id="21"><plan selected="yes"><act type="h" x="-14442789.551442979" y="3994194.0158610875" end_time="04:00:00" /><leg mode="car" /><act type="h" x="-14449367.308063721" y="3987631.6394224134" start_time="04:00:00" end_time="12:00:00" /></plan></person><person id="22"><plan selected="yes"><act type="h" x="-14459951.89503753" y="3984778.686717146" end_time="05:00:00" /><leg mode="car" /><act type="h" x="-14442849.48744576" y="4017748.219519572" start_time="05:00:00" end_time="13:00:00" /></plan></person><person id="23"><plan selected="yes"><act type="h" x="-14447385.214150704" y="3978032.978583703" end_time="05:00:00" /><leg mode="car" /><act type="h" x="-14380195.428756213" y="3924199.157467133" start_time="05:00:00" end_time="13:00:00" /></plan></person><person id="24"><plan selected="yes"><act type="h" x="-14454837.583682608" y="4020985.0940940226" end_time="05:00:00" /><leg mode="car" /><act type="h" x="-14474275.833985593" y="4077004.162647486" start_time="05:00:00" end_time="13:00:00" /></plan></person><person id="25"><plan selected="yes"><act type="h" x="-14462450.766791634" y="4061321.437262364" end_time="05:00:00" /><leg mode="car" /><act type="h" x="-14426724.242537217" y="3955281.0414188663" start_time="05:00:00" end_time="13:00:00" /></plan></person><person id="26"><plan selected="yes"><act type="h" x="-14406645.304689927" y="4018487.9940506546" end_time="06:00:00" /><leg mode="car" /><act type="h" x="-14441240.957030796" y="3991627.514330794" start_time="06:00:00" end_time="14:00:00" /></plan></person><person id="27"><plan selected="yes"><act type="h" x="-14401340.507195257" y="3958083.4767609118" end_time="06:00:00" /><leg mode="car" /><act type="h" x="-14427837.377489546" y="3955770.417437237" start_time="06:00:00" end_time="14:00:00" /></plan></person><person id="28"><plan selected="yes"><act type="h" x="-14441813.003660154" y="4003325.960321971" end_time="06:00:00" /><leg mode="car" /><act type="h" x="-14445372.68402127" y="3994177.406742847" start_time="06:00:00" end_time="14:00:00" /></plan></person><person id="29"><plan selected="yes"><act type="h" x="-14386406.764643544" y="4000065.082689233" end_time="06:00:00" /><leg mode="car" /><act type="h" x="-14457844.862587556" y="4015724.584963479" start_time="06:00:00" end_time="14:00:00" /></plan></person><person id="30"><plan selected="yes"><act type="h" x="-14454819.949670963" y="4020978.24623358" end_time="06:00:00" /><leg mode="car" /><act type="h" x="-14393469.99907598" y="3994632.264425487" start_time="06:00:00" end_time="14:00:00" /></plan></person><person id="31"><plan selected="yes"><act type="h" x="-14455840.205653736" y="4033786.4400349534" end_time="06:00:00" /><leg mode="car" /><act type="h" x="-14355009.73760289" y="3920887.0972580872" start_time="06:00:00" end_time="14:00:00" /></plan></person><person id="32"><plan selected="yes"><act type="h" x="-14442705.420011759" y="4016511.018639402" end_time="06:00:00" /><leg mode="car" /><act type="h" x="-14411868.147332393" y="3951063.395533904" start_time="06:00:00" end_time="14:00:00" /></plan></person><person id="33"><plan selected="yes"><act type="h" x="-14412025.687535001" y="3951430.914605762" end_time="06:00:00" /><leg mode="car" /><act type="h" x="-14442433.915726105" y="4014227.4248860376" start_time="06:00:00" end_time="14:00:00" /></plan></person><person id="34"><plan selected="yes"><act type="h" x="-14440061.337880407" y="3986728.362175009" end_time="07:00:00" /><leg mode="car" /><act type="h" x="-14399356.149229094" y="3960385.4277631454" start_time="07:00:00" end_time="15:00:00" /></plan></person><person id="35"><plan selected="yes"><act type="h" x="-14453714.94803542" y="3985761.6571720885" end_time="07:00:00" /><leg mode="car" /><act type="h" x="-14408537.120080126" y="4018128.69549737" start_time="07:00:00" end_time="15:00:00" /></plan></person><person id="36"><plan selected="yes"><act type="h" x="-14384275.909203043" y="3924657.7595803677" end_time="07:00:00" /><leg mode="car" /><act type="h" x="-14399582.568689797" y="3984552.53433177" start_time="07:00:00" end_time="15:00:00" /></plan></person><person id="37"><plan selected="yes"><act type="h" x="-14440929.27513456" y="3986460.280458854" end_time="07:00:00" /><leg mode="car" /><act type="h" x="-14410187.817869388" y="3938351.0491472213" start_time="07:00:00" end_time="15:00:00" /></plan></person><person id="38"><plan selected="yes"><act type="h" x="-14439730.872221142" y="4075897.725609778" end_time="07:00:00" /><leg mode="car" /><act type="h" x="-14450508.931788258" y="3989782.962558526" start_time="07:00:00" end_time="15:00:00" /></plan></person><person id="39"><plan selected="yes"><act type="h" x="-14445077.079067072" y="3986154.615971872" end_time="08:00:00" /><leg mode="car" /><act type="h" x="-14413452.499278048" y="3943315.071488753" start_time="08:00:00" end_time="16:00:00" /></plan></person><person id="40"><plan selected="yes"><act type="h" x="-14380125.253444603" y="3924182.7976483144" end_time="08:00:00" /><leg mode="car" /><act type="h" x="-14461324.863239981" y="4018427.5367498766" start_time="08:00:00" end_time="16:00:00" /></plan></person><person id="41"><plan selected="yes"><act type="h" x="-14403426.521989403" y="4018231.680817409" end_time="08:00:00" /><leg mode="car" /><act type="h" x="-14454696.73292976" y="4031853.2938984456" start_time="08:00:00" end_time="16:00:00" /></plan></person><person id="42"><plan selected="yes"><act type="h" x="-14455625.063483257" y="4033104.2100630654" end_time="08:00:00" /><leg mode="car" /><act type="h" x="-14402120.465136433" y="3985478.078674953" start_time="08:00:00" end_time="16:00:00" /></plan></person><person id="43"><plan selected="yes"><act type="h" x="-14453132.235013954" y="4054395.7352145487" end_time="08:00:00" /><leg mode="car" /><act type="h" x="-14437943.696358224" y="3978413.4206625978" start_time="08:00:00" end_time="16:00:00" /></plan></person><person id="44"><plan selected="yes"><act type="h" x="-14442747.225536572" y="4016725.61904102" end_time="08:00:00" /><leg mode="car" /><act type="h" x="-14442782.02946426" y="4019267.0334846578" start_time="08:00:00" end_time="16:00:00" /></plan></person><person id="45"><plan selected="yes"><act type="h" x="-14440045.769698119" y="3984703.496472119" end_time="08:00:00" /><leg mode="car" /><act type="h" x="-14459710.840329073" y="4052805.044673467" start_time="08:00:00" end_time="16:00:00" /></plan></person><person id="46"><plan selected="yes"><act type="h" x="-14465741.551702881" y="3984581.3235042603" end_time="09:00:00" /><leg mode="car" /><act type="h" x="-14440820.512561409" y="3986514.978235075" start_time="09:00:00" end_time="17:00:00" /></plan></person><person id="47"><plan selected="yes"><act type="h" x="-14439857.970467612" y="3976463.980367407" end_time="09:00:00" /><leg mode="car" /><act type="h" x="-14415453.88168901" y="3989296.2941983603" start_time="09:00:00" end_time="17:00:00" /></plan></person><person id="48"><plan selected="yes"><act type="h" x="-14454830.818077639" y="4021162.594426748" end_time="09:00:00" /><leg mode="car" /><act type="h" x="-14439174.974798918" y="3986035.329813888" start_time="09:00:00" end_time="17:00:00" /></plan></person><person id="49"><plan selected="yes"><act type="h" x="-14371414.14588764" y="3921367.057173077" end_time="09:00:00" /><leg mode="car" /><act type="h" x="-14400401.925467514" y="3988641.031006261" start_time="09:00:00" end_time="17:00:00" /></plan></person><person id="50"><plan selected="yes"><act type="h" x="-14438832.537719853" y="3972164.6442631087" end_time="09:00:00" /><leg mode="car" /><act type="h" x="-14416977.251114322" y="3951036.1992517444" start_time="09:00:00" end_time="17:00:00" /></plan></person><person id="51"><plan selected="yes"><act type="h" x="-14432500.463041782" y="3986184.9794843337" end_time="09:00:00" /><leg mode="car" /><act type="h" x="-14417392.478781054" y="3946776.1028436315" start_time="09:00:00" end_time="17:00:00" /></plan></person><person id="52"><plan selected="yes"><act type="h" x="-14416018.282177519" y="3989217.934781685" end_time="09:00:00" /><leg mode="car" /><act type="h" x="-14453203.643591719" y="3983269.1246237764" start_time="09:00:00" end_time="17:00:00" /></plan></person><person id="53"><plan selected="yes"><act type="h" x="-14439885.733849073" y="3986006.8743381207" end_time="10:00:00" /><leg mode="car" /><act type="h" x="-14440640.382795308" y="3998692.4674166045" start_time="10:00:00" end_time="18:00:00" /></plan></person><person id="54"><plan selected="yes"><act type="h" x="-14452278.187541783" y="4028064.7120685894" end_time="10:00:00" /><leg mode="car" /><act type="h" x="-14440038.770624684" y="3978630.1550581725" start_time="10:00:00" end_time="18:00:00" /></plan></person><person id="55"><plan selected="yes"><act type="h" x="-14401702.61797876" y="3957414.500052362" end_time="10:00:00" /><leg mode="car" /><act type="h" x="-14439693.272689661" y="3977361.068117292" start_time="10:00:00" end_time="18:00:00" /></plan></person><person id="56"><plan selected="yes"><act type="h" x="-14473184.684894282" y="3984464.5484855613" end_time="10:00:00" /><leg mode="car" /><act type="h" x="-14445993.748752568" y="3989825.0717073055" start_time="10:00:00" end_time="18:00:00" /></plan></person><person id="57"><plan selected="yes"><act type="h" x="-14439827.202378402" y="3984327.416081921" end_time="10:00:00" /><leg mode="car" /><act type="h" x="-14397799.98736568" y="3989452.110140864" start_time="10:00:00" end_time="18:00:00" /></plan></person><person id="58"><plan selected="yes"><act type="h" x="-14411623.269710531" y="3951688.377068154" end_time="11:00:00" /><leg mode="car" /><act type="h" x="-14431356.598485854" y="3957468.5574647533" start_time="11:00:00" end_time="19:00:00" /></plan></person><person id="59"><plan selected="yes"><act type="h" x="-14463700.709395273" y="4063656.8413564404" end_time="11:00:00" /><leg mode="car" /><act type="h" x="-14480794.161931934" y="3969103.222679005" start_time="11:00:00" end_time="19:00:00" /></plan></person><person id="60"><plan selected="yes"><act type="h" x="-14437957.855181558" y="3969639.3194937613" end_time="11:00:00" /><leg mode="car" /><act type="h" x="-14453736.084690692" y="4025630.965133495" start_time="11:00:00" end_time="19:00:00" /></plan></person><person id="61"><plan selected="yes"><act type="h" x="-14402082.992300415" y="3988973.335802847" end_time="11:00:00" /><leg mode="car" /><act type="h" x="-14409119.03766048" y="4017943.243054912" start_time="11:00:00" end_time="19:00:00" /></plan></person><person id="62"><plan selected="yes"><act type="h" x="-14450874.151880627" y="4013263.0728958477" end_time="11:00:00" /><leg mode="car" /><act type="h" x="-14448889.863914238" y="3986265.4988830527" start_time="11:00:00" end_time="19:00:00" /></plan></person><person id="63"><plan selected="yes"><act type="h" x="-14439939.449854529" y="3983681.8495315514" end_time="11:00:00" /><leg mode="car" /><act type="h" x="-14474611.144365817" y="4076346.6377571914" start_time="11:00:00" end_time="19:00:00" /></plan></person><person id="64"><plan selected="yes"><act type="h" x="-14439678.053913366" y="3981650.8428513035" end_time="11:00:00" /><leg mode="car" /><act type="h" x="-14442486.497074313" y="3996151.90790371" start_time="11:00:00" end_time="19:00:00" /></plan></person><person id="65"><plan selected="yes"><act type="h" x="-14393420.653328259" y="3994659.9547680253" end_time="11:00:00" /><leg mode="car" /><act type="h" x="-14451975.964946223" y="4061519.3234648523" start_time="11:00:00" end_time="19:00:00" /></plan></person><person id="66"><plan selected="yes"><act type="h" x="-14454362.576620469" y="3976540.9811831205" end_time="11:00:00" /><leg mode="car" /><act type="h" x="-14440361.169374045" y="3986536.6083058394" start_time="11:00:00" end_time="19:00:00" /></plan></person><person id="67"><plan selected="yes"><act type="h" x="-14439579.759816727" y="3980380.7386086476" end_time="11:00:00" /><leg mode="car" /><act type="h" x="-14442321.024805766" y="4007962.309187126" start_time="11:00:00" end_time="19:00:00" /></plan></person><person id="68"><plan selected="yes"><act type="h" x="-14423852.639244333" y="3988335.1298060934" end_time="11:00:00" /><leg mode="car" /><act type="h" x="-14469157.870022353" y="4068788.4709478156" start_time="11:00:00" end_time="19:00:00" /></plan></person><person id="69"><plan selected="yes"><act type="h" x="-14403461.365328558" y="4018327.198193195" end_time="11:00:00" /><leg mode="car" /><act type="h" x="-14447174.25556858" y="3973396.7843439532" start_time="11:00:00" end_time="19:00:00" /></plan></person><person id="70"><plan selected="yes"><act type="h" x="-14442427.35791235" y="4011496.0283138105" end_time="11:00:00" /><leg mode="car" /><act type="h" x="-14365960.077296698" y="3921909.80683047" start_time="11:00:00" end_time="19:00:00" /></plan></person><person id="71"><plan selected="yes"><act type="h" x="-14411906.84512663" y="3945855.4641799796" end_time="12:00:00" /><leg mode="car" /><act type="h" x="-14459121.066576872" y="3984889.021023752" start_time="12:00:00" end_time="20:00:00" /></plan></person><person id="72"><plan selected="yes"><act type="h" x="-14441110.29848204" y="3989115.8547875495" end_time="12:00:00" /><leg mode="car" /><act type="h" x="-14445039.757162025" y="3980625.2773726555" start_time="12:00:00" end_time="20:00:00" /></plan></person><person id="73"><plan selected="yes"><act type="h" x="-14401771.290016377" y="4017205.425922312" end_time="12:00:00" /><leg mode="car" /><act type="h" x="-14446937.306949602" y="3989749.452017288" start_time="12:00:00" end_time="20:00:00" /></plan></person><person id="74"><plan selected="yes"><act type="h" x="-14455874.912835224" y="3985190.812006848" end_time="12:00:00" /><leg mode="car" /><act type="h" x="-14460813.288940297" y="4055132.8085784772" start_time="12:00:00" end_time="20:00:00" /></plan></person><person id="75"><plan selected="yes"><act type="h" x="-14440240.431649992" y="4007776.9578112112" end_time="12:00:00" /><leg mode="car" /><act type="h" x="-14459256.056095172" y="4016110.6070605926" start_time="12:00:00" end_time="20:00:00" /></plan></person><person id="76"><plan selected="yes"><act type="h" x="-14452278.187541783" y="4028064.7120685894" end_time="12:00:00" /><leg mode="car" /><act type="h" x="-14431286.272261608" y="3957413.5915534664" start_time="12:00:00" end_time="20:00:00" /></plan></person><person id="77"><plan selected="yes"><act type="h" x="-14464672.236871406" y="3984490.98514252" end_time="12:00:00" /><leg mode="car" /><act type="h" x="-14445299.032613682" y="3991962.1824771464" start_time="12:00:00" end_time="20:00:00" /></plan></person><person id="78"><plan selected="yes"><act type="h" x="-14415629.735279588" y="3944951.9166456535" end_time="13:00:00" /><leg mode="car" /><act type="h" x="-14393655.376678417" y="3985776.71424795" start_time="13:00:00" end_time="21:00:00" /></plan></person><person id="79"><plan selected="yes"><act type="h" x="-14452821.472371798" y="4019426.9698425457" end_time="13:00:00" /><leg mode="car" /><act type="h" x="-14408216.39895226" y="3953083.69945529" start_time="13:00:00" end_time="21:00:00" /></plan></person><person id="80"><plan selected="yes"><act type="h" x="-14401302.479531331" y="4016948.857782322" end_time="13:00:00" /><leg mode="car" /><act type="h" x="-14467349.241543591" y="3985025.5118653183" start_time="13:00:00" end_time="21:00:00" /></plan></person><person id="81"><plan selected="yes"><act type="h" x="-14440667.025807394" y="3998661.677291342" end_time="14:00:00" /><leg mode="car" /><act type="h" x="-14437870.207260842" y="3969059.09628681" start_time="14:00:00" end_time="22:00:00" /></plan></person><person id="82"><plan selected="yes"><act type="h" x="-14447100.961969398" y="3971959.8274349184" end_time="14:00:00" /><leg mode="car" /><act type="h" x="-14445174.031082202" y="3990209.4668478663" start_time="14:00:00" end_time="22:00:00" /></plan></person><person id="83"><plan selected="yes"><act type="h" x="-14440525.4700259" y="4007472.5016838936" end_time="14:00:00" /><leg mode="car" /><act type="h" x="-14380515.154401496" y="3924174.0977478595" start_time="14:00:00" end_time="22:00:00" /></plan></person><person id="84"><plan selected="yes"><act type="h" x="-14435797.704231067" y="4023687.7513943496" end_time="14:00:00" /><leg mode="car" /><act type="h" x="-14437740.674929572" y="3967037.625545013" start_time="14:00:00" end_time="22:00:00" /></plan></person><person id="85"><plan selected="yes"><act type="h" x="-14363917.054226313" y="3921576.093401947" end_time="14:00:00" /><leg mode="car" /><act type="h" x="-14411963.161285965" y="3947031.410294157" start_time="14:00:00" end_time="22:00:00" /></plan></person><person id="86"><plan selected="yes"><act type="h" x="-14443656.11443488" y="4023058.841050289" end_time="14:00:00" /><leg mode="car" /><act type="h" x="-14431423.155988822" y="3986027.891153075" start_time="14:00:00" end_time="22:00:00" /></plan></person><person id="87"><plan selected="yes"><act type="h" x="-14447321.249377595" y="3977163.3997848216" end_time="14:00:00" /><leg mode="car" /><act type="h" x="-14411834.03601312" y="3947524.002967068" start_time="14:00:00" end_time="22:00:00" /></plan></person><person id="88"><plan selected="yes"><act type="h" x="-14469372.229095964" y="4068926.006316871" end_time="14:00:00" /><leg mode="car" /><act type="h" x="-14442117.81896749" y="3996245.602171019" start_time="14:00:00" end_time="22:00:00" /></plan></person><person id="89"><plan selected="yes"><act type="h" x="-14444502.167755006" y="3986284.602054987" end_time="15:00:00" /><leg mode="car" /><act type="h" x="-14475815.806795256" y="4072695.64613335" start_time="15:00:00" end_time="23:00:00" /></plan></person><person id="90"><plan selected="yes"><act type="h" x="-14462724.28972306" y="3984611.9220437543" end_time="15:00:00" /><leg mode="car" /><act type="h" x="-14447694.82412191" y="3969666.5753686973" start_time="15:00:00" end_time="23:00:00" /></plan></person><person id="91"><plan selected="yes"><act type="h" x="-14445279.361151244" y="3991741.0115849297" end_time="15:00:00" /><leg mode="car" /><act type="h" x="-14439833.295407413" y="4002558.516559391" start_time="15:00:00" end_time="23:00:00" /></plan></person><person id="92"><plan selected="yes"><act type="h" x="-14390090.384882413" y="3976292.7565142033" end_time="15:00:00" /><leg mode="car" /><act type="h" x="-14422165.70864567" y="3989222.120240997" start_time="15:00:00" end_time="23:00:00" /></plan></person><person id="93"><plan selected="yes"><act type="h" x="-14454623.639572214" y="3976855.1852899273" end_time="16:00:00" /><leg mode="car" /><act type="h" x="-14439937.792502385" y="4004083.660503038" start_time="16:00:00" end_time="00:00:00" /></plan></person><person id="94"><plan selected="yes"><act type="h" x="-14447296.146481259" y="3977225.9554034993" end_time="16:00:00" /><leg mode="car" /><act type="h" x="-14453312.434994865" y="3985775.273679984" start_time="16:00:00" end_time="00:00:00" /></plan></person><person id="95"><plan selected="yes"><act type="h" x="-14405978.86188124" y="3991326.7652095016" end_time="16:00:00" /><leg mode="car" /><act type="h" x="-14396903.607791563" y="3983907.6137593505" start_time="16:00:00" end_time="00:00:00" /></plan></person><person id="96"><plan selected="yes"><act type="h" x="-14436544.940104144" y="3986293.8936011544" end_time="16:00:00" /><leg mode="car" /><act type="h" x="-14432383.888254173" y="3978698.5714619635" start_time="16:00:00" end_time="00:00:00" /></plan></person><person id="97"><plan selected="yes"><act type="h" x="-14443634.58623334" y="4023086.73167158" end_time="17:00:00" /><leg mode="car" /><act type="h" x="-14418379.434176488" y="3947667.9139322303" start_time="17:00:00" end_time="01:00:00" /></plan></person><person id="98"><plan selected="yes"><act type="h" x="-14442817.972468665" y="4020084.3783776197" end_time="17:00:00" /><leg mode="car" /><act type="h" x="-14433764.49007651" y="3986407.7566003893" start_time="17:00:00" end_time="01:00:00" /></plan></person><person id="99"><plan selected="yes"><act type="h" x="-14393454.76664639" y="3985415.4843857847" end_time="17:00:00" /><leg mode="car" /><act type="h" x="-14450742.059774796" y="3989841.2576978514" start_time="17:00:00" end_time="01:00:00" /></plan></person><person id="100"><plan selected="yes"><act type="h" x="-14429506.95391326" y="3956144.0516256685" end_time="17:00:00" /><leg mode="car" /><act type="h" x="-14459269.085305512" y="4046703.1917851223" start_time="17:00:00" end_time="01:00:00" /></plan></person><person id="101"><plan selected="yes"><act type="h" x="-14442780.62234241" y="4022286.122053983" end_time="17:00:00" /><leg mode="car" /><act type="h" x="-14427420.88403478" y="4021932.4932470024" start_time="17:00:00" end_time="01:00:00" /></plan></person><person id="102"><plan selected="yes"><act type="h" x="-14445484.638021631" y="4010248.961222573" end_time="17:00:00" /><leg mode="car" /><act type="h" x="-14441360.193585545" y="3989367.405705798" start_time="17:00:00" end_time="01:00:00" /></plan></person><person id="103"><plan selected="yes"><act type="h" x="-14441018.340416968" y="3988860.597262449" end_time="17:00:00" /><leg mode="car" /><act type="h" x="-14411590.348808838" y="3941661.5002927156" start_time="17:00:00" end_time="01:00:00" /></plan></person><person id="104"><plan selected="yes"><act type="h" x="-14460939.964851191" y="4055186.9939827933" end_time="17:00:00" /><leg mode="car" /><act type="h" x="-14459327.531182457" y="4016154.089041121" start_time="17:00:00" end_time="01:00:00" /></plan></person><person id="105"><plan selected="yes"><act type="h" x="-14415750.234255526" y="3945556.311657548" end_time="17:00:00" /><leg mode="car" /><act type="h" x="-14388385.046818327" y="3997024.8409102694" start_time="17:00:00" end_time="01:00:00" /></plan></person><person id="106"><plan selected="yes"><act type="h" x="-14445196.458104083" y="3986185.852226458" end_time="17:00:00" /><leg mode="car" /><act type="h" x="-14441996.468488377" y="3997104.8942945595" start_time="17:00:00" end_time="01:00:00" /></plan></person><person id="107"><plan selected="yes"><act type="h" x="-14454217.015192874" y="3976240.5284462823" end_time="17:00:00" /><leg mode="car" /><act type="h" x="-14453079.77987018" y="3972177.962240042" start_time="17:00:00" end_time="01:00:00" /></plan></person><person id="108"><plan selected="yes"><act type="h" x="-14442792.22143424" y="4002412.735147656" end_time="18:00:00" /><leg mode="car" /><act type="h" x="-14449374.068223828" y="3989453.630858028" start_time="18:00:00" end_time="02:00:00" /></plan></person><person id="109"><plan selected="yes"><act type="h" x="-14466117.07084091" y="3984655.7372046816" end_time="18:00:00" /><leg mode="car" /><act type="h" x="-14465711.60608841" y="3984580.8469828935" start_time="18:00:00" end_time="02:00:00" /></plan></person><person id="110"><plan selected="yes"><act type="h" x="-14388818.355473896" y="3997006.1489502024" end_time="18:00:00" /><leg mode="car" /><act type="h" x="-14465865.896875592" y="4065696.2815950476" start_time="18:00:00" end_time="02:00:00" /></plan></person><person id="111"><plan selected="yes"><act type="h" x="-14411945.157779468" y="3951387.577494371" end_time="18:00:00" /><leg mode="car" /><act type="h" x="-14421090.756302563" y="3952657.766591964" start_time="18:00:00" end_time="02:00:00" /></plan></person><person id="112"><plan selected="yes"><act type="h" x="-14389054.912279071" y="3974762.460346841" end_time="18:00:00" /><leg mode="car" /><act type="h" x="-14401460.892008318" y="3929456.261629654" start_time="18:00:00" end_time="02:00:00" /></plan></person><person id="113"><plan selected="yes"><act type="h" x="-14448926.154305652" y="3989430.292231609" end_time="18:00:00" /><leg mode="car" /><act type="h" x="-14464900.861393724" y="4078879.4214000255" start_time="18:00:00" end_time="02:00:00" /></plan></person><person id="114"><plan selected="yes"><act type="h" x="-14440314.53975987" y="3988332.4805828896" end_time="18:00:00" /><leg mode="car" /><act type="h" x="-14440327.993957473" y="3985922.5664507006" start_time="18:00:00" end_time="02:00:00" /></plan></person><person id="115"><plan selected="yes"><act type="h" x="-14445225.214741211" y="3990231.4858502634" end_time="18:00:00" /><leg mode="car" /><act type="h" x="-14419947.564206969" y="3952121.8614204866" start_time="18:00:00" end_time="02:00:00" /></plan></person><person id="116"><plan selected="yes"><act type="h" x="-14444284.571136666" y="4008042.3183945287" end_time="18:00:00" /><leg mode="car" /><act type="h" x="-14447953.614365" y="3979700.84499679" start_time="18:00:00" end_time="02:00:00" /></plan></p