<?xml version="1.0" ?>
<!DOCTYPE plans SYSTEM "http://www.matsim.org/files/dtd/plans_v4.dtd">
<plans xml:lang="de-CH"><person id="1"><plan selected="yes"><act type="h" x="-14370097.659115942" y="3953337.3866535416" end_time="09:00:00" /><leg mode="car" /><act type="w" x="-14453706.104282659" y="4025720.5348524735" start_time="09:00:00" end_time="18:00:00" /><leg mode="car" /><act type="h" x="-14370097.659115942" y="3953337.3866535416" /></plan></person><person id="2"><plan selected="yes"><act type="h" x="-14449354.962074285" y="4016737.98515588" end_time="09:00:00" /><leg mode="car" /><act type="w" x="-14407298.664456705" y="3953892.848851239" start_time="09:00:00" end_time="18:00:00" /><leg mode="car" /><act type="h" x="-14449354.962074285" y="4016737.98515588" /></plan></person><person id="3"><plan selected="yes"><act type="h" x="-14437798.007948594" y="3965807.722083157" end_time="09:00:00" /><leg mode="car" /><act type="w" x="-14441888.195026942" y="3997472.521237848" start_time="09:00:00" end_time="18:00:00" /><leg mode="car" /><act type="h" x="-14437798.007948594" y="3965807.722083157" /></plan></person><person id="4"><plan selected="yes"><act type="h" x="-14427936.95866862" y="3955794.155172255" end_time="09:00:00" /><leg mode="car" /><act type="w" x="-14389151.380295796" y="3974887.1855549538" start_time="09:00:00" end_time="18:00:00" /><leg mode="car" /><act type="h" x="-14427936.95866862" y="3955794.155172255" /></plan></person><person id="5"><plan selected="yes"><act type="h" x="-14410263.770066885" y="3937978.1792915426" end_time="09:00:00" /><leg mode="car" /><act type="w" x="-14431247.70178781" y="3985990.3812139505" start_time="09:00:00" end_time="18:00:00" /><leg mode="car" /><act type="h" x="-14410263.770066885" y="3937978.1792915426" /></plan></person><person id="6"><plan selected="yes"><act type="h" x="-14417983.788653206" y="4016559.4776064386" end_time="09:00:00" /><leg mode="car" /><act type="w" x="-14428613.595499814" y="3985027.3104469865" start_time="09:00:00" end_time="18:00:00" /><leg mode="car" /><act type="h" x="-14417983.788653206" y="4016559.4776064386" /></plan></person><person id="7"><plan selected="yes"><act type="h" x="-14390626.841451935" y="3924144.7952018157" end_time="09:00:00" /><leg mode="car" /><act type="w" x="-14389377.836498719" y="4007345.2753476845" start_time="09:00:00" end_time="18:00:00" /><leg mode="car" /><act type="h" x="-14390626.841451935" y="3924144.7952018157" /></plan></person><person id="8"><plan selected="yes"><act type="h" x="-14442488.576528216" y="4014540.9708356257" end_time="09:00:00" /><leg mode="car" /><act type="w" x="-14443037.828107882" y="4023030.401195798" start_time="09:00:00" end_time="18:00:00" /><leg mode="car" /><act type="h" x="-14442488.576528216" y="4014540.9708356257" /></plan></person><person id="9"><plan selected="yes"><act type="h" x="-14409459.601000782" y="4017512.9408440483" end_time="09:00:00" /><leg mode="car" /><act type="w" x="-14453694.099388126" y="3985744.975732623" start_time="09:00:00" end_time="18:00:00" /><leg mode="car" /><act type="h" x="-14409459.601000782" y="4017512.9408440483" /></plan></person><person id="10"><plan selected="yes"><act type="h" x="-14402238.919997223" y="3986574.727425202" end_time="09:00:00" /><leg mode="car" /><act type="w" x="-14410704.062192123" y="3952459.2547655054" start_time="09:00:00" end_time="18:00:00" /><leg mode="car" /><act type="h" x="-14402238.919997223" y="3986574.727425202" /></plan></person><person id="11"><plan selected="yes"><act type="h" x="-14442494.524996113" y="4014476.1971490434" end_time="09:00:00" /><leg mode="car" /><act type="w" x="-14454481.081805054" y="3976729.288853005" start_time="09:00:00" end_time="18:00:00" /><leg mode="car" /><act type="h" x="-14442494.524996113" y="4014476.1971490434" /></plan></person><person id="12"><plan selected="yes"><act type="h" x="-14448366.988676136" y="3984957.7006472233" end_time="09:00:00" /><leg mode="car" /><act type="w" x="-14445284.29994241" y="3986191.1452309126" start_time="09:00:00" end_time="18:00:00" /><leg mode="car" /><act type="h" x="-14448366.988676136" y="3984957.7006472233" /></plan></person><person id="13"><plan selected="yes"><act type="h" x="-14393655.376678417" y="3985776.71424795" end_time="09:00:00" /><leg mode="car" /><act type="w" x="-14397821.012456287" y="3983393.7306186473" start_time="09:00:00" end_time="18:00:00" /><leg mode="car" /><act type="h" x="-14393655.376678417" y="3985776.71424795" /></plan></person><person id="14"><plan selected="yes"><act type="h" x="-14444005.759133024" y="3986236.272069787" end_time="09:00:00" /><leg mode="car" /><act type="w" x="-14475951.43111755" y="4072955.161744078" start_time="09:00:00" end_time="18:00:00" /><leg mode="car" /><act type="h" x="-14444005.759133024" y="3986236.272069787" /></plan></person><person id="15"><plan selected="yes"><act type="h" x="-14441623.217717819" y="3992100.223213496" end_time="09:00:00" /><leg mode="car" /><act type="w" x="-14423800.799806736" y="3953876.369980968" start_time="09:00:00" end_time="18:00:00" /><leg mode="car" /><act type="h" x="-14441623.217717819" y="3992100.223213496" /></plan></person><person id="16"><plan selected="yes"><act type="h" x="-14416376.336738268" y="3989495.5882910425" end_time="09:00:00" /><leg mode="car" /><act type="w" x="-14440744.005817642" y="4008726.848298903" start_time="09:00:00" end_time="18:00:00" /><leg mode="car" /><act type="h" x="-14416376.336738268" y="3989495.5882910425" /></plan></person><person id="17"><plan selected="yes"><act type="h" x="-14449748.43701953" y="4012836.8496282324" end_time="09:00:00" /><leg mode="car" /><act type="w" x="-14473643.906067943" y="3984363.074414106" start_time="09:00:00" end_time="18:00:00" /><leg mode="car" /><act type="h" x="-14449748.43701953" y="4012836.8496282324" /></plan></person><person id="18"><plan selected="yes"><act type="h" x="-14448114.977141699" y="3984052.295991449" end_time="09:00:00" /><leg mode="car" /><act type="w" x="-14370914.0263882" y="3956549.830510615" start_time="09:00:00" end_time="18:00:00" /><leg mode="car" /><act type="h" x="-14448114.977141699" y="3984052.295991449" /></plan></person><person id="19"><plan selected="yes"><act type="h" x="-14392299.89733068" y="4011244.454040804" end_time="09:00:00" /><leg mode="car" /><act type="w" x="-14429738.894829744" y="3979266.782174949" start_time="09:00:00" end_time="18:00:00" /><leg mode="car" /><act type="h" x="-14392299.89733068" y="4011244.454040804" /></plan></person><person id="20"><plan selected="yes"><act type="h" x="-14394243.246425763" y="3926830.5910983407" end_time="09:00:00" /><leg mode="car" /><act type="w" x="-14445020.766796347" y="3982408.60587713" start_time="09:00:00" end_time="18:00:00" /><leg mode="car" /><act type="h" x="-14394243.246425763" y="3926830.5910983407" /></plan></person><person id="21"><plan selected="yes"><act type="h" x="-14452416.308853379" y="3989960.649693831" end_time="09:00:00" /><leg mode="car" /><act type="w" x="-14456992.232533986" y="4015557.506328598" start_time="09:00:00" end_time="18:00:00" /><leg mode="car" /><act type="h" x="-14452416.308853379" y="3989960.649693831" /></plan></person><person id="22"><plan selected="yes"><act type="h" x="-14412059.57441334" y="3948718.0961128655" end_time="09:00:00" /><leg mode="car" /><act type="w" x="-14396703.922885153" y="3927379.922061488" start_time="09:00:00" end_time="18:00:00" /><leg mode="car" /><act type="h" x="-14412059.57441334" y="3948718.0961128655" /></plan></person><person id="23"><plan selected="yes"><act type="h" x="-14447146.355606223" y="3971611.0082676164" end_time="09:00:00" /><leg mode="car" /><act type="w" x="-14457244.997100553" y="4053008.345000692" start_time="09:00:00" end_time="18:00:00" /><leg mode="car" /><act type="h" x="-14447146.355606223" y="3971611.0082676164" /></plan></person><person id="24"><plan selected="yes"><act type="h" x="-14460664.060483927" y="4054612.760618837" end_time="09:00:00" /><leg mode="car" /><act type="w" x="-14410677.996408716" y="3990847.929987378" start_time="09:00:00" end_time="18:00:00" /><leg mode="car" /><act type="h" x="-14460664.060483927" y="4054612.760618837" /></plan></person><person id="25"><plan selected="yes"><act type="h" x="-14462450.766791634" y="4061321.437262364" end_time="09:00:00" /><leg mode="car" /><act type="w" x="-14442475.1744807" y="4011944.177240519" start_time="09:00:00" end_time="18:00:00" /><leg mode="car" /><act type="h" x="-14462450.766791634" y="4061321.437262364" /></plan></person><person id="26"><plan selected="yes"><act type="h" x="-14440335.876191305" y="3986112.062808281" end_time="09:00:00" /><leg mode="car" /><act type="w" x="-14411832.934033295" y="3951480.6658134405" start_time="09:00:00" end_time="18:00:00" /><leg mode="car" /><act type="h" x="-14440335.876191305" y="3986112.062808281" /></plan></person><person id="27"><plan selected="yes"><act type="h" x="-14411866.379001888" y="3945198.6090000398" end_time="09:00:00" /><leg mode="car" /><act type="w" x="-14455662.850521121" y="3985252.442484444" start_time="09:00:00" end_time="18:00:00" /><leg mode="car" /><act type="h" x="-14411866.379001888" y="3945198.6090000398" /></plan></person><person id="28"><plan selected="yes"><act type="h" x="-14442042.787266307" y="3966320.4441281497" end_time="09:00:00" /><leg mode="car" /><act type="w" x="-14453830.067446267" y="4025980.2862478374" start_time="09:00:00" end_time="18:00:00" /><leg mode="car" /><act type="h" x="-14442042.787266307" y="3966320.4441281497" /></plan></person><person id="29"><plan selected="yes"><act type="h" x="-14440275.190870203" y="4007767.477528868" end_time="09:00:00" /><leg mode="car" /><act type="w" x="-14471310.417687198" y="3984905.558966759" start_time="09:00:00" end_time="18:00:00" /><leg mode="car" /><act type="h" x="-14440275.190870203" y="4007767.477528868" /></plan></person><person id="30"><plan selected="yes"><act type="h" x="-14447601.820371771" y="3968060.429809042" end_time="09:00:00" /><leg mode="car" /><act type="w" x="-14452915.672959521" y="3971320.823945079" start_time="09:00:00" end_time="18:00:00" /><leg mode="car" /><act type="h" x="-14447601.820371771" y="3968060.429809042" /></plan></person><person id="31"><plan selected="yes"><act type="h" x="-14459012.721892055" y="3984901.9394127433" end_time="09:00:00" /><leg mode="car" /><act type="w" x="-14408214.124720702" y="3933342.4901367477" start_time="09:00:00" end_time="18:00:00" /><leg mode="car" /><act type="h" x="-14459012.721892055" y="3984901.9394127433" /></plan></person><person id="32"><plan selected="yes"><act type="h" x="-14397723.145179853" y="3989468.688715739" end_time="09:00:00" /><leg mode="car" /><act type="w" x="-14410835.33367041" y="3952399.203935053" start_time="09:00:00" end_time="18:00:00" /><leg mode="car" /><act type="h" x="-14397723.145179853" y="3989468.688715739" /></plan></person><person id="33"><plan selected="yes"><act type="h" x="-14392723.35365769" y="4011257.717841988" end_time="09:00:00" /><leg mode="car" /><act type="w" x="-14459753.411704287" y="4052811.5361093315" start_time="09:00:00" end_time="18:00:00" /><leg mode="car" /><act type="h" x="-14392723.35365769" y="4011257.717841988" /></plan></person><person id="34"><plan selected="yes"><act type="h" x="-14440161.49103699" y="3986217.967703977" end_time="09:00:00" /><leg mode="car" /><act type="w" x="-14465549.218882965" y="3984597.015183585" start_time="09:00:00" end_time="18:00:00" /><leg mode="car" /><act type="h" x="-14440161.49103699" y="3986217.967703977" /></plan></person><person id="35"><plan selected="yes"><act type="h" x="-14410433.5920053" y="3940593.63174199" end_time="09:00:00" /><leg mode="car" /><act type="w" x="-14387336.555394178" y="3969005.0378000773" start_time="09:00:00" end_time="18:00:00" /><leg mode="car" /><act type="h" x="-14410433.5920053" y="3940593.63174199" /></plan></person><person id="36"><plan selected="yes"><act type="h" x="-14441269.77044384" y="3990339.9872335275" end_time="09:00:00" /><leg mode="car" /><act type="w" x="-14452202.6506149" y="4028237.880235073" start_time="09:00:00" end_time="18:00:00" /><leg mode="car" /><act type="h" x="-14441269.77044384" y="3990339.9872335275" /></plan></person><person id="37"><plan selected="yes"><act type="h" x="-14428094.79909643" y="3955823.6279688776" end_time="09:00:00" /><leg mode="car" /><act type="w" x="-14355324.692577848" y="3947329.4625106296" start_time="09:00:00" end_time="18:00:00" /><leg mode="car" /><act type="h" x="-14428094.79909643" y="3955823.6279688776" /></plan></person><person id="38"><plan selected="yes"><act type="h" x="-14447681.724625641" y="3969351.579182886" end_time="09:00:00" /><leg mode="car" /><act type="w" x="-14390498.739648988" y="4009552.159743346" start_time="09:00:00" end_time="18:00:00" /><leg mode="car" /><act type="h" x="-14447681.724625641" y="3969351.579182886" /></plan></person><person id="39"><plan selected="yes"><act type="h" x="-14471153.425072484" y="3984932.6345101804" end_time="09:00:00" /><leg mode="car" /><act type="w" x="-14430967.767114464" y="3986052.0333942315" start_time="09:00:00" end_time="18:00:00" /><leg mode="car" /><act type="h" x="-14471153.425072484" y="3984932.6345101804" /></plan></person><person id="40"><plan selected="yes"><act type="h" x="-14445048.890149314" y="3988182.5930265742" end_time="09:00:00" /><leg mode="car" /><act type="w" x="-14443508.186603813" y="4022875.626101122" start_time="09:00:00" end_time="18:00:00" /><leg mode="car" /><act type="h" x="-14445048.890149314" y="3988182.5930265742" /></plan></person><person id="41"><plan selected="yes"><act type="h" x="-14471803.894622816" y="3984816.78284145" end_time="09:00:00" /><leg mode="car" /><act type="w" x="-14447634.809091486" y="3968549.569475514" start_time="09:00:00" end_time="18:00:00" /><leg mode="car" /><act type="h" x="-14471803.894622816" y="3984816.78284145" /></plan></person><person id="42"><plan selected="yes"><act type="h" x="-14411849.40961093" y="3944916.248520538" end_time="09:00:00" /><leg mode="car" /><act type="w" x="-14447974.055597084" y="4015555.2876042426" start_time="09:00:00" end_time="18:00:00" /><leg mode="car" /><act type="h" x="-14411849.40961093" y="3944916.248520538" /></plan></person><person id="43"><plan selected="yes"><act type="h" x="-14460723.003251662" y="4054818.1020432934" end_time="09:00:00" /><leg mode="car" /><act type="w" x="-14453972.043655515" y="4053763.1053746208" start_time="09:00:00" end_time="18:00:00" /><leg mode="car" /><act type="h" x="-14460723.003251662" y="4054818.1020432934" /></plan></person><person id="44"><plan selected="yes"><act type="h" x="-14459901.053052923" y="4052773.8700809856" end_time="09:00:00" /><leg mode="car" /><act type="w" x="-14447079.292100081" y="3971617.5110450657" start_time="09:00:00" end_time="18:00:00" /><leg mode="car" /><act type="h" x="-14459901.053052923" y="4052773.8700809856" /></plan></person><person id="45"><plan selected="yes"><act type="h" x="-14435495.577711783" y="3986356.8677957375" end_time="09:00:00" /><leg mode="car" /><act type="w" x="-14399219.701029964" y="3928347.485987518" start_time="09:00:00" end_time="18:00:00" /><leg mode="car" /><act type="h" x="-14435495.577711783" y="3986356.8677957375" /></plan></person><person id="46"><plan selected="yes"><act type="h" x="-14396469.80852869" y="3988667.405355495" end_time="09:00:00" /><leg mode="car" /><act type="w" x="-14453656.306809332" y="3989886.9208045015" start_time="09:00:00" end_time="18:00:00" /><leg mode="car" /><act type="h" x="-14396469.80852869" y="3988667.405355495" /></plan></person><person id="47"><plan selected="yes"><act type="h" x="-14470385.830339544" y="4069392.310030706" end_time="09:00:00" /><leg mode="car" /><act type="w" x="-14382039.803448293" y="3924323.453134314" start_time="09:00:00" end_time="18:00:00" /><leg mode="car" /><act type="h" x="-14470385.830339544" y="4069392.310030706" /></plan></person><person id="48"><plan selected="yes"><act type="h" x="-14459459.621678254" y="4047181.0481057665" end_time="09:00:00" /><leg mode="car" /><act type="w" x="-14444404.17385873" y="4000468.3322158656" start_time="09:00:00" end_time="18:00:00" /><leg mode="car" /><act type="h" x="-14459459.621678254" y="4047181.0481057665" /></plan></person><person id="49"><plan selected="yes"><act type="h" x="-14475709.624520268" y="4072691.944176222" end_time="09:00:00" /><leg mode="car" /><act type="w" x="-14447482.834573125" y="3978432.280028228" start_time="09:00:00" end_time="18:00:00" /><leg mode="car" /><act type="h" x="-14475709.624520268" y="4072691.944176222" /></plan></person><person id="50"><plan selected="yes"><act type="h" x="-14448048.802634174" y="3980234.145537258" end_time="09:00:00" /><leg mode="car" /><act type="w" x="-14473794.772507103" y="3984365.02896073" start_time="09:00:00" end_time="18:00:00" /><leg mode="car" /><act type="h" x="-14448048.802634174" y="3980234.145537258" /></plan></person><person id="51"><plan selected="yes"><act type="h" x="-14438098.109777847" y="4074827.047232046" end_time="09:00:00" /><leg mode="car" /><act type="w" x="-14446937.306949602" y="3989749.452017288" start_time="09:00:00" end_time="18:00:00" /><leg mode="car" /><act type="h" x="-14438098.109777847" y="4074827.047232046" /></plan></person><person id="52"><plan selected="yes"><act type="h" x="-14441254.745212916" y="3991644.592944718" end_time="09:00:00" /><leg mode="car" /><act type="w" x="-14452968.661369195" y="4027503.6898385696" start_time="09:00:00" end_time="18:00:00" /><leg mode="car" /><act type="h" x="-14441254.745212916" y="3991644.592944718" /></plan></person><person id="53"><plan selected="yes"><act type="h" x="-14451099.986380227" y="4018344.05743857" end_time="09:00:00" /><leg mode="car" /><act type="w" x="-14443684.482154164" y="3990017.6611600993" start_time="09:00:00" end_time="18:00:00" /><leg mode="car" /><act type="h" x="-14451099.986380227" y="4018344.05743857" /></plan></person><person id="54"><plan selected="yes"><act type="h" x="-14453797.564601574" y="4025725.985104105" end_time="09:00:00" /><leg mode="car" /><act type="w" x="-14448057.45012789" y="3980462.00471065" start_time="09:00:00" end_time="18:00:00" /><leg mode="car" /><act type="h" x="-14453797.564601574" y="4025725.985104105" /></plan></person><person id="55"><plan selected="yes"><act type="h" x="-14403540.459062796" y="4018360.0726129063" end_time="09:00:00" /><leg mode="car" /><act type="w" x="-14410160.636400746" y="3938158.3081427193" start_time="09:00:00" end_time="18:00:00" /><leg mode="car" /><act type="h" x="-14403540.459062796" y="4018360.0726129063" /></plan></person><person id="56"><plan selected="yes"><act type="h" x="-14410202.9368339" y="3937924.516744361" end_time="09:00:00" /><leg mode="car" /><act type="w" x="-14457120.96054744" y="4039805.455161286" start_time="09:00:00" end_time="18:00:00" /><leg mode="car" /><act type="h" x="-14410202.9368339" y="3937924.516744361" /></plan></person><person id="57"><plan selected="yes"><act type="h" x="-14454830.818077639" y="4021162.594426748" end_time="09:00:00" /><leg mode="car" /><act type="w" x="-14447651.636046898" y="3986251.4819340776" start_time="09:00:00" end_time="18:00:00" /><leg mode="car" /><act type="h" x="-14454830.818077639" y="4021162.594426748" /></plan></person><person id="58"><plan selected="yes"><act type="h" x="-14378870.382253015" y="3923701.6242030803" end_time="09:00:00" /><leg mode="car" /><act type="w" x="-14450053.653597869" y="4058159.256185666" start_time="09:00:00" end_time="18:00:00" /><leg mode="car" /><act type="h" x="-14378870.382253015" y="3923701.6242030803" /></plan></person><person id="59"><plan selected="yes"><act type="h" x="-14453293.51603726" y="3983416.0349913" end_time="09:00:00" /><leg mode="car" /><act type="w" x="-14448000.994259026" y="3979730.1717649596" start_time="09:00:00" end_time="18:00:00" /><leg mode="car" /><act type="h" x="-14453293.51603726" y="3983416.0349913" /></plan></person><person id="60"><plan selected="yes"><act type="h" x="-14469276.372236723" y="4068854.646978994" end_time="09:00:00" /><leg mode="car" /><act type="w" x="-14411879.581867032" y="3945245.6467061667" start_time="09:00:00" end_time="18:00:00" /><leg mode="car" /><act type="h" x="-14469276.372236723" y="4068854.646978994" /></plan></person><person id="61"><plan selected="yes"><act type="h" x="-14442671.05078425" y="4016597.891236208" end_time="09:00:00" /><leg mode="car" /><act type="w" x="-14439427.71596815" y="3966554.669736878" start_time="09:00:00" end_time="18:00:00" /><leg mode="car" /><act type="h" x="-14442671.05078425" y="4016597.891236208" /></plan></person><person id="62"><plan selected="yes"><act type="h" x="-14439156.121628618" y="3974466.3320627026" end_time="09:00:00" /><leg mode="car" /><act type="w" x="-14446399.091940442" y="3986300.091482625" start_time="09:00:00" end_time="18:00:00" /><leg mode="car" /><act type="h" x="-14439156.121628618" y="3974466.3320627026" /></plan></person><person id="63"><plan selected="yes"><act type="h" x="-14455021.464909628" y="4053150.916740155" end_time="09:00:00" /><leg mode="car" /><act type="w" x="-14449337.922770917" y="3989432.0676148264" start_time="09:00:00" end_time="18:00:00" /><leg mode="car" /><act type="h" x="-14455021.464909628" y="4053150.916740155" /></plan></person><person id="64"><plan selected="yes"><act type="h" x="-14355548.099948926" y="3920878.1253189356" end_time="09:00:00" /><leg mode="car" /><act type="w" x="-14385131.903932314" y="3924654.7287119385" start_time="09:00:00" end_time="18:00:00" /><leg mode="car" /><act type="h" x="-14355548.099948926" y="3920878.1253189356" /></plan></person><person id="65"><plan selected="yes"><act type="h" x="-14445238.28254586" y="3986306.5653221942" end_time="09:00:00" /><leg mode="car" /><act type="w" x="-14447876.686837798" y="4015566.2855748287" start_time="09:00:00" end_time="18:00:00" /><leg mode="car" /><act type="h" x="-14445238.28254586" y="3986306.5653221942" /></plan></person><person id="66"><plan selected="yes"><act type="h" x="-14388395.547880441" y="4006140.6382983606" end_time="09:00:00" /><leg mode="car" /><act type="w" x="-14411784.518152997" y="3951602.2034219992" start_time="09:00:00" end_time="18:00:00" /><leg mode="car" /><act type="h" x="-14388395.547880441" y="4006140.6382983606" /></plan></person><person id="67"><plan selected="yes"><act type="h" x="-14411946.030929506" y="3951326.328774756" end_time="09:00:00" /><leg mode="car" /><act type="w" x="-14443794.353238964" y="3990003.6863955446" start_time="09:00:00" end_time="18:00:00" /><leg mode="car" /><act type="h" x="-14411946.030929506" y="3951326.328774756" /></plan></person><person id="68"><plan selected="yes"><act type="h" x="-14414952.18154657" y="3944481.266282814" end_time="09:00:00" /><leg mode="car" /><act type="w" x="-14430118.594362056" y="3986234.058613629" start_time="09:00:00" end_time="18:00:00" /><leg mode="car" /><act type="h" x="-14414952.18154657" y="3944481.266282814" /></plan></person><person id="69"><plan selected="yes"><act type="h" x="-14387364.966379555" y="3969139.2091823462" end_time="09:00:00" /><leg mode="car" /><act type="w" x="-14402965.271232428" y="3956067.389082894" start_time="09:00:00" end_time="18:00:00" /><leg mode="car" /><act type="h" x="-14387364.966379555" y="3969139.2091823462" /></plan></person><person id="70"><plan selected="yes"><act type="h" x="-14439418.077175077" y="3966670.314175994" end_time="09:00:00" /><leg mode="car" /><act type="w" x="-14438134.593476841" y="4074315.5125183403" start_time="09:00:00" end_time="18:00:00" /><leg mode="car" /><act type="h" x="-14439418.077175077" y="3966670.314175994" /></plan></person><person id="71"><plan selected="yes"><act type="h" x="-14445073.115649272" y="3988306.0717342254" end_time="09:00:00" /><leg mode="car" /><act type="w" x="-14427420.88403478" y="4021932.4932470024" start_time="09:00:00" end_time="18:00:00" /><leg mode="car" /><act type="h" x="-14445073.115649272" y="3988306.0717342254" /></plan></person><person id="72"><plan selected="yes"><act type="h" x="-14448924.029560858" y="3989498.9432942574" end_time="09:00:00" /><leg mode="car" /><act type="w" x="-14459668.650931556" y="4052803.283648792" start_time="09:00:00" end_time="18:00:00" /><leg mode="car" /><act type="h" x="-14448924.029560858" y="3989498.9432942574" /></plan></person><person id="73"><plan selected="yes"><act type="h" x="-14448085.64735525" y="3986192.492493372" end_time="09:00:00" /><leg mode="car" /><act type="w" x="-14449918.91614789" y="4023906.4505107515" start_time="09:00:00" end_time="18:00:00" /><leg mode="car" /><act type="h" x="-14448085.64735525" y="3986192.492493372" /></plan></person><person id="74"><plan selected="yes"><act type="h" x="-14453254.37706833" y="3983272.576775854" end_time="09:00:00" /><leg mode="car" /><act type="w" x="-14445980.47025938" y="4022798.8196378807" start_time="09:00:00" end_time="18:00:00" /><leg mode="car" /><act type="h" x="-14453254.37706833" y="3983272.576775854" /></plan></person><person id="75"><plan selected="yes"><act type="h" x="-14447492.350859368" y="3978722.1261013923" end_time="09:00:00" /><leg mode="car" /><act type="w" x="-14445379.303184165" y="3993142.166628612" start_time="09:00:00" end_time="18:00:00" /><leg mode="car" /><act type="h" x="-14447492.350859368" y="3978722.1261013923" /></plan></person><person id="76"><plan selected="yes"><act type="h" x="-14397821.528263502" y="3989446.2272281055" end_time="09:00:00" /><leg mode="car" /><act type="w" x="-14462105.062894119" y="3984685.3242918183" start_time="09:00:00" end_time="18:00:00" /><leg mode="car" /><act type="h" x="-14397821.528263502" y="3989446.2272281055" /></plan></person><person id="77"><plan selected="yes"><act type="h" x="-14456842.442789884" y="4039412.4609121783" end_time="09:00:00" /><leg mode="car" /><act type="w" x="-14410650.134068381" y="3941003.435540364" start_time="09:00:00" end_time="18:00:00" /><leg mode="car" /><act type="h" x="-14456842.442789884" y="4039412.4609121783" /></plan></person><person id="78"><plan selected="yes"><act type="h" x="-14453424.30813892" y="4054384.9350442886" end_time="09:00:00" /><leg mode="car" /><act type="w" x="-14437096.06418438" y="3986191.0432079947" start_time="09:00:00" end_time="18:00:00" /><leg mode="car" /><act type="h" x="-14453424.30813892" y="4054384.9350442886" /></plan></person><person id="79"><plan selected="yes"><act type="h" x="-14452575.582291296" y="3973907.801847774" end_time="09:00:00" /><leg mode="car" /><act type="w" x="-14411742.964836806" y="3942510.8879348673" start_time="09:00:00" end_time="18:00:00" /><leg mode="car" /><act type="h" x="-14452575.582291296" y="3973907.801847774" /></plan></person><person id="80"><plan selected="yes"><act type="h" x="-14442556.59530657" y="3966421.2756021186" end_time="09:00:00" /><leg mode="car" /><act type="w" x="-14438418.278384378" y="3978448.5180208245" start_time="09:00:00" end_time="18:00:00" /><leg mode="car" /><act type="h" x="-14442556.59530657" y="3966421.2756021186" /></plan></person><person id="81"><plan selected="yes"><act type="h" x="-14444881.205794787" y="3986216.536280693" end_time="09:00:00" /><leg mode="car" /><act type="w" x="-14480234.514275962" y="3976833.997750716" start_time="09:00:00" end_time="18:00:00" /><leg mode="car" /><act type="h" x="-14444881.205794787" y="3986216.536280693" /></plan></person><person id="82"><plan selected="yes"><act type="h" x="-14369944.284161929" y="3953632.221526483" end_time="09:00:00" /><leg mode="car" /><act type="w" x="-14458969.287112113" y="3984900.3797311014" start_time="09:00:00" end_time="18:00:00" /><leg mode="car" /><act type="h" x="-14369944.284161929" y="3953632.221526483" /></plan></person><person id="83"><plan selected="yes"><act type="h" x="-14411768.725613343" y="3942040.242051985" end_time="09:00:00" /><leg mode="car" /><act type="w" x="-14440311.00246369" y="3986560.9951587613" start_time="09:00:00" end_time="18:00:00" /><leg mode="car" /><act type="h" x="-14411768.725613343" y="3942040.242051985" /></plan></person><person id="84"><plan selected="yes"><act type="h" x="-14440004.754252126" y="4006603.8875148715" end_time="09:00:00" /><leg mode="car" /><act type="w" x="-14397296.315541897" y="3989502.2383179856" start_time="09:00:00" end_time="18:00:00" /><leg mode="car" /><act type="h" x="-14440004.754252126" y="4006603.8875148715" /></plan></person><person id="85"><plan selected="yes"><act type="h" x="-14441311.753753798" y="4009776.335622995" end_time="09:00:00" /><leg mode="car" /><act type="w" x="-14389565.383069113" y="3978763.2923287526" start_time="09:00:00" end_time="18:00:00" /><leg mode="car" /><act type="h" x="-14441311.753753798" y="4009776.335622995" /></plan></person><person id="86"><plan selected="yes"><act type="h" x="-14463209.211778551" y="3984496.135614822" end_time="09:00:00" /><leg mode="car" /><act type="w" x="-14410148.170217955" y="3935212.0755771175" start_time="09:00:00" end_time="18:00:00" /><leg mode="car" /><act type="h" x="-14463209.211778551" y="3984496.135614822" /></plan></person><person id="87"><plan selected="yes"><act type="h" x="-14437907.595368918" y="3968976.978973698" end_time="09:00:00" /><leg mode="car" /><act type="w" x="-14439829.923900215" y="4004229.958829629" start_time="09:00:00" end_time="18:00:00" /><leg mode="car" /><act type="h" x="-14437907.595368918" y="3968976.978973698" /></plan></person><person id="88"><plan selected="yes"><act type="h" x="-14394684.60792118" y="3993543.610066465" end_time="09:00:00" /><leg mode="car" /><act type="w" x="-14435060.857399289" y="4023622.40550013" start_time="09:00:00" end_time="18:00:00" /><leg mode="car" /><act type="h" x="-14394684.60792118" y="3993543.610066465" /></plan></person><person id="89"><plan selected="yes"><act type="h" x="-14439607.133934585" y="3981221.5609009825" end_time="09:00:00" /><leg mode="car" /><act type="w" x="-14412080.784237862" y="3948804.618922072