<?xml version="1.0" ?>
<!DOCTYPE plans SYSTEM "http://www.matsim.org/files/dtd/plans_v4.dtd">
<plans xml:lang="de-CH"><person id="1"><plan selected="yes"><act type="h" x="-14414458.45347227" y="3951183.702519966" end_time="03:00:00" /><leg mode="car" /><act type="h" x="-14440929.27513456" y="3986460.280458854" start_time="03:00:00" end_time="11:00:00" /></plan></person><person id="2"><plan selected="yes"><act type="h" x="-14440838.32613204" y="4003974.580040901" end_time="06:00:00" /><leg mode="car" /><act type="h" x="-14413260.900979536" y="3951264.012970786" start_time="06:00:00" end_time="14:00:00" /></plan></person><person id="3"><plan selected="yes"><act type="h" x="-14448932.814914756" y="3986276.882936041" end_time="07:00:00" /><leg mode="car" /><act type="h" x="-14458967.629787657" y="4015938.682788299" start_time="07:00:00" end_time="15:00:00" /></plan></person><person id="4"><plan selected="yes"><act type="h" x="-14454840.625504918" y="4014963.1979271094" end_time="07:00:00" /><leg mode="car" /><act type="h" x="-14415852.461597033" y="3945750.8001371794" start_time="07:00:00" end_time="15:00:00" /></plan></person><person id="5"><plan selected="yes"><act type="h" x="-14454733.457002947" y="3977135.4863933017" end_time="09:00:00" /><leg mode="car" /><act type="h" x="-14455998.979266485" y="4036335.695332486" start_time="09:00:00" end_time="17:00:00" /></plan></person><person id="6"><plan selected="yes"><act type="h" x="-14439894.89149426" y="3978780.5013906406" end_time="13:00:00" /><leg mode="car" /><act type="h" x="-14441097.225169972" y="3989074.783402205" start_time="13:00:00" end_time="21:00:00" /></plan></person><person id="7"><plan selected="yes"><act type="h" x="-14442221.457625438" y="4012791.0730950823" end_time="15:00:00" /><leg mode="car" /><act type="h" x="-14362573.848514335" y="3921283.70042611" start_time="15:00:00" end_time="23:00:00" /></plan></person><person id="8"><plan selected="yes"><act type="h" x="-14440347.261437071" y="3986486.662025065" end_time="17:00:00" /><leg mode="car" /><act type="h" x="-14448309.229311457" y="3984920.814244975" start_time="17:00:00" end_time="01:00:00" /></plan></person><person id="9"><plan selected="yes"><act type="h" x="-14443901.67982444" y="3986286.067822301" end_time="18:00:00" /><leg mode="car" /><act type="h" x="-14419750.354801096" y="3951957.226844309" start_time="18:00:00" end_time="02:00:00" /></plan></person><person id="10"><plan selected="yes"><act type="h" x="-14425085.87334245" y="4020633.9150170134" end_time="20:00:00" /><leg mode="car" /><act type="h" x="-14465466.43368325" y="4065407.717293429" start_time="20:00:00" end_time="04:00:00" /></plan></person></plans>