<?xml version="1.0" ?>
<!DOCTYPE plans SYSTEM "http://www.matsim.org/files/dtd/plans_v4.dtd">
<plans xml:lang="de-CH"><person id="1"><plan selected="yes"><act type="h" x="-14378650.361810248" y="3923598.2539251493" end_time="01:00:00" /><leg mode="car" /><act type="h" x="-14410208.120784286" y="3940469.7786467867" start_time="01:00:00" end_time="09:00:00" /></plan></person><person id="2"><plan selected="yes"><act type="h" x="-14442750.778415209" y="4016964.145386541" end_time="02:00:00" /><leg mode="car" /><act type="h" x="-14415957.72237848" y="3945837.6688948437" start_time="02:00:00" end_time="10:00:00" /></plan></person><person id="3"><plan selected="yes"><act type="h" x="-14437792.022524163" y="3969068.836696782" end_time="03:00:00" /><leg mode="car" /><act type="h" x="-14439659.85214801" y="3975983.485306025" start_time="03:00:00" end_time="11:00:00" /></plan></person><person id="4"><plan selected="yes"><act type="h" x="-14445039.519661259" y="3986460.281083582" end_time="04:00:00" /><leg mode="car" /><act type="h" x="-14419975.264057713" y="3952134.6705931937" start_time="04:00:00" end_time="12:00:00" /></plan></person><person id="5"><plan selected="yes"><act type="h" x="-14445129.667866556" y="3998386.9332456617" end_time="05:00:00" /><leg mode="car" /><act type="h" x="-14438768.109591136" y="3971699.8241736502" start_time="05:00:00" end_time="13:00:00" /></plan></person><person id="6"><plan selected="yes"><act type="h" x="-14417647.274623794" y="4016503.489414044" end_time="05:00:00" /><leg mode="car" /><act type="h" x="-14468065.15112243" y="3985209.9375703675" start_time="05:00:00" end_time="13:00:00" /></plan></person><person id="7"><plan selected="yes"><act type="h" x="-14391779.620108027" y="3981269.4029502207" end_time="06:00:00" /><leg mode="car" /><act type="h" x="-14478598.53444806" y="3980668.423736414" start_time="06:00:00" end_time="14:00:00" /></plan></person><person id="8"><plan selected="yes"><act type="h" x="-14440367.44357452" y="3986705.7871972015" end_time="06:00:00" /><leg mode="car" /><act type="h" x="-14459080.795419052" y="4045923.35553932" start_time="06:00:00" end_time="14:00:00" /></plan></person><person id="9"><plan selected="yes"><act type="h" x="-14445075.31447213" y="3987680.6542164395" end_time="07:00:00" /><leg mode="car" /><act type="h" x="-14439687.977418013" y="3979568.2617428713" start_time="07:00:00" end_time="15:00:00" /></plan></person><person id="10"><plan selected="yes"><act type="h" x="-14396084.467250058" y="3988547.2379237395" end_time="07:00:00" /><leg mode="car" /><act type="h" x="-14401742.292187499" y="3957682.1770001603" start_time="07:00:00" end_time="15:00:00" /></plan></person></plans>