<?xml version="1.0"?>
<!DOCTYPE plans SYSTEM "http://www.matsim.org/files/dtd/plans_v4.dtd">
<plans xml:lang="de-CH">
	<person id="1">
		<plan selected="yes">
			<act type="h" x="-14459947.60864424" y="4052732.1523611634" end_time="00:11:00" />
			<leg mode="car" />
			<act type="h" x="-14410292.62874661" y="3935093.857099619" start_time="00:11:00" end_time="08:11:00" />
		</plan>
	</person>
</plans>
