<?xml version="1.0" encoding="UTF-8"?>
<!DOCTYPE network SYSTEM "http://www.matsim.org/files/dtd/network_v2.dtd">
<network>

<!-- ====================================================================== -->

	<nodes>
		<node id="10011376434" x="-1.4439703836142402E7" y="3977494.498971543" >
		</node>
		<node id="10017659301" x="-1.4440170132854111E7" y="3986061.1023399434" >
		</node>
		<node id="10017931167" x="-1.4439072875992162E7" y="3964396.7231668774" >
		</node>
		<node id="10018297998" x="-1.4439726416332662E7" y="3982481.222827058" >
		</node>
		<node id="10024385561" x="-1.4439545509713981E7" y="3977687.1232320294" >
		</node>
		<node id="10024599729" x="-1.4431196224067148E7" y="3957182.4370804415" >
		</node>
		<node id="10026383784" x="-1.444037276738166E7" y="3999140.4602077752" >
		</node>
		<node id="1003337748" x="-1.4447845908511018E7" y="4015173.4747437574" >
		</node>
		<node id="1003337751" x="-1.4447852930972325E7" y="4015454.5209465623" >
		</node>
		<node id="1003337754" x="-1.4447862024117293E7" y="4015616.6855843537" >
		</node>
		<node id="1003337756" x="-1.444791044728093E7" y="4015689.690576022" >
		</node>
		<node id="1003380315" x="-1.4448012698655626E7" y="4015621.4040724197" >
		</node>
		<node id="1003380319" x="-1.4447978262283849E7" y="4015557.6203523176" >
		</node>
		<node id="1003380325" x="-1.4447872438742127E7" y="4015515.4116148604" >
		</node>
		<node id="1003380335" x="-1.4447876719994586E7" y="4015566.310219694" >
		</node>
		<node id="1003380336" x="-1.4447974641516374E7" y="4015506.807220169" >
		</node>
		<node id="10060890685" x="-1.4438465316522256E7" y="3965049.8482596274" >
		</node>
		<node id="10072730943" x="-1.4437652043616619E7" y="3966937.117352873" >
		</node>
		<node id="10072872311" x="-1.4438189127502225E7" y="3970421.7543267794" >
		</node>
		<node id="10074981981" x="-1.4438405082672266E7" y="3970952.438160479" >
		</node>
		<node id="10076571252" x="-1.4442000428480003E7" y="3995216.6314101946" >
		</node>
		<node id="10079480603" x="-1.4450621210593024E7" y="4017762.234168362" >
		</node>
		<node id="10081842086" x="-1.4438383795521045E7" y="3965320.600688624" >
		</node>
		<node id="10093648144" x="-1.4441991718259094E7" y="3996331.5446790894" >
		</node>
		<node id="10093661027" x="-1.4452790216861865E7" y="4019541.2333203848" >
		</node>
		<node id="10093661028" x="-1.4452825920543196E7" y="4019536.316054136" >
		</node>
		<node id="10093661029" x="-1.4453373502956467E7" y="4027139.558422274" >
		</node>
		<node id="10093661030" x="-1.4453347855280915E7" y="4027129.473044692" >
		</node>
		<node id="10100604849" x="-1.445573198555267E7" y="4033333.695438941" >
		</node>
		<node id="10108106770" x="-1.443903864166015E7" y="3974317.482597572" >
		</node>
		<node id="10129955300" x="-1.4417798799736757E7" y="3947170.888480861" >
		</node>
		<node id="10130233356" x="-1.4418187785989458E7" y="3947572.5443652244" >
		</node>
		<node id="10140069623" x="-1.4439254911416482E7" y="3974759.790901627" >
		</node>
		<node id="10140069624" x="-1.4439233885954253E7" y="3974730.983450921" >
		</node>
		<node id="10140069625" x="-1.4439035290998511E7" y="3974283.05521654" >
		</node>
		<node id="10140069626" x="-1.4439044336131299E7" y="3974058.9913661936" >
		</node>
		<node id="10142916074" x="-1.4439271360542217E7" y="3974617.1729932637" >
		</node>
		<node id="10142916075" x="-1.4439598628179058E7" y="3975546.441111869" >
		</node>
		<node id="10147436753" x="-1.443769503957403E7" y="3967313.988040208" >
		</node>
		<node id="10147436760" x="-1.4437872636204807E7" y="3968832.6910360563" >
		</node>
		<node id="10147436762" x="-1.443785112590461E7" y="3968640.784591368" >
		</node>
		<node id="10223479948" x="-1.443972789045755E7" y="3976129.4110695766" >
		</node>
		<node id="10278955932" x="-1.441897647507151E7" y="3950922.8895278363" >
		</node>
		<node id="10295120931" x="-1.4439679487667488E7" y="3982105.4893178544" >
		</node>
		<node id="10564302634" x="-1.4440728278398696E7" y="3988635.586478513" >
		</node>
		<node id="10566978220" x="-1.4438871197142996E7" y="3972042.699616961" >
		</node>
		<node id="10593109862" x="-1.4439825673641445E7" y="3977195.7309780554" >
		</node>
		<node id="10593194057" x="-1.4441462180116702E7" y="3989587.7895334647" >
		</node>
		<node id="10698125084" x="-1.444122416215982E7" y="3991623.5918006646" >
		</node>
		<node id="10699903579" x="-1.443768549563703E7" y="3967033.8214417887" >
		</node>
		<node id="10711273238" x="-1.4454802707857497E7" y="4031897.956903841" >
		</node>
		<node id="10711273247" x="-1.445473424618772E7" y="4031709.4536497486" >
		</node>
		<node id="10711273261" x="-1.4454605439381454E7" y="4031796.403513711" >
		</node>
		<node id="10711282327" x="-1.4455998640671434E7" y="4037301.914039735" >
		</node>
		<node id="10711294121" x="-1.445962275251315E7" y="4047247.7114396137" >
		</node>
		<node id="10711316942" x="-1.4455971025995445E7" y="4033945.4970773207" >
		</node>
		<node id="10711316945" x="-1.4455840227756957E7" y="4033786.4564068546" >
		</node>
		<node id="10711326705" x="-1.4454439476326527E7" y="4030473.133507584" >
		</node>
		<node id="10867693640" x="-1.4438278791697584E7" y="3970326.9983648146" >
		</node>
		<node id="10867693642" x="-1.4438193213240968E7" y="3970145.825608338" >
		</node>
		<node id="10870883066" x="-1.4437822433374597E7" y="3969254.217420128" >
		</node>
		<node id="10870883067" x="-1.443788816845314E7" y="3969441.1667667674" >
		</node>
		<node id="10889532124" x="-1.4438181569023632E7" y="3970379.5217896635" >
		</node>
		<node id="10905144761" x="-1.445477674287192E7" y="4021116.5236227945" >
		</node>
		<node id="10905144766" x="-1.4454748009327943E7" y="4021093.958805821" >
		</node>
		<node id="10959274212" x="-1.4441097266795967E7" y="3989074.7720730826" >
		</node>
		<node id="10970600442" x="-1.4455010902801184E7" y="4021129.5024019107" >
		</node>
		<node id="10972480260" x="-1.4449862698703961E7" y="4017062.855581587" >
		</node>
		<node id="10983679779" x="-1.4410134720590621E7" y="3937191.626232883" >
		</node>
		<node id="10994055942" x="-1.4410239659349574E7" y="3938144.978759077" >
		</node>
		<node id="11121985760" x="-1.4455957506570868E7" y="4034737.552442641" >
		</node>
		<node id="11196218759" x="-1.4454962400037913E7" y="4021067.5020974795" >
		</node>
		<node id="11270882990" x="-1.445486175159341E7" y="4024835.145490406" >
		</node>
		<node id="11560173648" x="-1.444139400822913E7" y="3991798.64082798" >
		</node>
		<node id="1173940983" x="-1.443817338115321E7" y="3970104.485567933" >
		</node>
		<node id="11875710299" x="-1.445495651911642E7" y="4024384.176178452" >
		</node>
		<node id="11932941567" x="-1.4441494741931308E7" y="3989675.8779821815" >
		</node>
		<node id="11932968879" x="-1.4441484020953177E7" y="3989675.6757052517" >
		</node>
		<node id="11932968884" x="-1.4441499416750902E7" y="3989684.0691079586" >
		</node>
		<node id="1218576975" x="-1.4441490731277363E7" y="3989685.7772725057" >
		</node>
		<node id="1218576977" x="-1.4441484574417679E7" y="3989687.3379276986" >
		</node>
		<node id="1218576986" x="-1.4441494929311868E7" y="3989674.015863681" >
		</node>
		<node id="1218576992" x="-1.4441490456052551E7" y="3989680.5156707168" >
		</node>
		<node id="1218576993" x="-1.4441517543649934E7" y="3989681.1070740162" >
		</node>
		<node id="1218577008" x="-1.444148312309226E7" y="3989674.4197914083" >
		</node>
		<node id="1218577016" x="-1.444152738894401E7" y="3989685.5077971187" >
		</node>
		<node id="12204798570" x="-1.4455177192759292E7" y="4023668.8005470005" >
		</node>
		<node id="12349505806" x="-1.4439690701841928E7" y="3977106.0476159053" >
		</node>
		<node id="12406030997" x="-1.441014354283692E7" y="3937425.936085416" >
		</node>
		<node id="12406091486" x="-1.4411316241678635E7" y="3941657.5725594666" >
		</node>
		<node id="12406394858" x="-1.4419168373662392E7" y="3949117.1781051373" >
		</node>
		<node id="12406406930" x="-1.4438052360063612E7" y="3965570.484575608" >
		</node>
		<node id="12406416331" x="-1.4419383633547788E7" y="3951383.6116660065" >
		</node>
		<node id="12406423600" x="-1.4428521206136053E7" y="3955917.0733723296" >
		</node>
		<node id="12406424990" x="-1.4415026910924414E7" y="3944502.165037225" >
		</node>
		<node id="12406431531" x="-1.4438887567530863E7" y="3964646.35941399" >
		</node>
		<node id="12406436982" x="-1.4437787003366416E7" y="3968561.2238550778" >
		</node>
		<node id="12406451327" x="-1.4439637393890278E7" y="3977960.3988760253" >
		</node>
		<node id="12406471293" x="-1.4437674139993666E7" y="3966498.7668463145" >
		</node>
		<node id="12406489093" x="-1.4419274151898067E7" y="3949988.5442295745" >
		</node>
		<node id="12406498344" x="-1.4424675349390766E7" y="3954313.266587593" >
		</node>
		<node id="12438006289" x="-1.441923423110105E7" y="3950010.531504592" >
		</node>
		<node id="12438006290" x="-1.4419237875431137E7" y="3950054.4009079793" >
		</node>
		<node id="12438015561" x="-1.4414971713456944E7" y="3944495.2255201307" >
		</node>
		<node id="12438027640" x="-1.442631508479802E7" y="3955115.537850563" >
		</node>
		<node id="12438151071" x="-1.443772679396764E7" y="3967475.4659019033" >
		</node>
		<node id="12438204728" x="-1.4437723319958478E7" y="3966638.038992948" >
		</node>
		<node id="1338395319" x="-1.4439888179037139E7" y="4002201.3017366454" >
		</node>
		<node id="1385864097" x="-1.443992466606757E7" y="3962621.395344867" >
		</node>
		<node id="1385864104" x="-1.4441120063505013E7" y="3990887.8384130253" >
		</node>
		<node id="1385864105" x="-1.4441204342690127E7" y="3991372.6369774053" >
		</node>
		<node id="1385864110" x="-1.445458261499144E7" y="4031623.139976244" >
		</node>
		<node id="1468889938" x="-1.4460037604441848E7" y="4048326.5931305485" >
		</node>
		<node id="1468889939" x="-1.4460002995906597E7" y="4049251.55958549" >
		</node>
		<node id="1495904154" x="-1.4438402704468204E7" y="3965309.148711887" >
		</node>
		<node id="1495904223" x="-1.443857857747957E7" y="3965162.5010277787" >
		</node>
		<node id="1574971171" x="-1.4439911693713298E7" y="3984355.029177969" >
		</node>
		<node id="1574971178" x="-1.443987872536864E7" y="3984357.0947737284" >
		</node>
		<node id="1574971186" x="-1.4439895131113295E7" y="3984361.785573823" >
		</node>
		<node id="1574971199" x="-1.4439916174318684E7" y="3984364.967631904" >
		</node>
		<node id="1574971202" x="-1.4439877773373045E7" y="3984367.234309204" >
		</node>
		<node id="1574971217" x="-1.4439900489695603E7" y="3984369.7397436844" >
		</node>
		<node id="1574971234" x="-1.4439921862899896E7" y="3984374.773249136" >
		</node>
		<node id="1574971237" x="-1.4439880278770892E7" y="3984378.107506992" >
		</node>
		<node id="1586499123" x="-1.4441260208691634E7" y="3991604.504639119" >
		</node>
		<node id="1586499124" x="-1.4441190001014017E7" y="3991611.2069867523" >
		</node>
		<node id="1586499166" x="-1.4441216947375756E7" y="3991743.845215401" >
		</node>
		<node id="1589941676" x="-1.4440581568117904E7" y="3988485.409324005" >
		</node>
		<node id="1589941714" x="-1.4442887615945993E7" y="3994294.5736226235" >
		</node>
		<node id="1590005893" x="-1.4440425047271622E7" y="3988431.8258442464" >
		</node>
		<node id="1590005896" x="-1.444056913914307E7" y="3988502.1397927497" >
		</node>
		<node id="1590005897" x="-1.44405564398889E7" y="3988532.5412895214" >
		</node>
		<node id="1590005901" x="-1.444066899034866E7" y="3988544.393630975" >
		</node>
		<node id="1590005903" x="-1.4440658341977764E7" y="3988557.940072285" >
		</node>
		<node id="1590005918" x="-1.4440644468445843E7" y="3988585.427707269" >
		</node>
		<node id="1590005919" x="-1.4440820276120689E7" y="3988654.663652028" >
		</node>
		<node id="1590005920" x="-1.4440802267877495E7" y="3988679.774962486" >
		</node>
		<node id="1590165700" x="-1.4439871719738873E7" y="3984339.57130459" >
		</node>
		<node id="1590165701" x="-1.443990237432494E7" y="3984339.342131917" >
		</node>
		<node id="1590165702" x="-1.4439895590805003E7" y="3984390.3270657454" >
		</node>
		<node id="1590165703" x="-1.4439928988544436E7" y="3984392.9042580402" >
		</node>
		<node id="1610739713" x="-1.443971186744588E7" y="3982103.306511063" >
		</node>
		<node id="1610739760" x="-1.443969380182943E7" y="3982109.484433376" >
		</node>
		<node id="1610739764" x="-1.4439709975274403E7" y="3982112.007624174" >
		</node>
		<node id="1610739766" x="-1.4439676894121993E7" y="3982112.3153577815" >
		</node>
		<node id="1610739769" x="-1.4439694741162641E7" y="3982115.2577969343" >
		</node>
		<node id="1610739781" x="-1.4439675575531825E7" y="3982121.0632070564" >
		</node>
		<node id="1617894937" x="-1.4424029811074294E7" y="3954040.3208344886" >
		</node>
		<node id="1637396694" x="-1.4410149789128039E7" y="3937942.769845648" >
		</node>
		<node id="1637396716" x="-1.4410223963853627E7" y="3937908.618655748" >
		</node>
		<node id="1637396741" x="-1.4410225568445986E7" y="3937764.263307509" >
		</node>
		<node id="1637396746" x="-1.4410151173435485E7" y="3938121.035313959" >
		</node>
		<node id="1637396771" x="-1.4410147807457607E7" y="3937908.7330557085" >
		</node>
		<node id="1637396773" x="-1.4410108099065073E7" y="3938028.3810138754" >
		</node>
		<node id="1637396776" x="-1.4410228006522292E7" y="3937944.1069770935" >
		</node>
		<node id="1637396812" x="-1.4410125064853583E7" y="3937794.047917617" >
		</node>
		<node id="1637396859" x="-1.4410107021062786E7" y="3937871.3515648753" >
		</node>
		<node id="1638641001" x="-1.4410106268673718E7" y="3935364.4801279833" >
		</node>
		<node id="1638641005" x="-1.441010888344783E7" y="3935319.71253568" >
		</node>
		<node id="1638641022" x="-1.441021530680085E7" y="3934941.9634852116" >
		</node>
		<node id="1638641034" x="-1.441017275760647E7" y="3935187.8057789663" >
		</node>
		<node id="1638641050" x="-1.441029262874661E7" y="3935093.857099619" >
		</node>
		<node id="1638641063" x="-1.4410101080942232E7" y="3934811.7387628374" >
		</node>
		<node id="1638641064" x="-1.441026395604358E7" y="3934999.4902435397" >
		</node>
		<node id="1664396169" x="-1.4438416214326939E7" y="3970645.256342915" >
		</node>
		<node id="1664396174" x="-1.4438506234469334E7" y="3971092.142500543" >
		</node>
		<node id="1664396180" x="-1.4438288865035584E7" y="3970577.2697749035" >
		</node>
		<node id="1664396197" x="-1.443820166734062E7" y="3970491.9391951934" >
		</node>
		<node id="1664396202" x="-1.4438367247015942E7" y="3970511.095879039" >
		</node>
		<node id="1664396209" x="-1.4438262087715281E7" y="3970649.9245573217" >
		</node>
		<node id="1664396213" x="-1.4438437757505935E7" y="3970734.2352540903" >
		</node>
		<node id="1677133208" x="-1.4437762458626479E7" y="3967070.5649230895" >
		</node>
		<node id="1788099688" x="-1.4439816285439903E7" y="3977239.0270856866" >
		</node>
		<node id="1837162485" x="-1.4410273876740225E7" y="3935002.1471111723" >
		</node>
		<node id="1878832991" x="-1.4424052632526748E7" y="3953978.8390980284" >
		</node>
		<node id="1878832995" x="-1.4424069273324497E7" y="3953986.8783092247" >
		</node>
		<node id="1878832997" x="-1.4423958541758163E7" y="3954060.181211886" >
		</node>
		<node id="1878833001" x="-1.4423976084589934E7" y="3954069.1886301823" >
		</node>
		<node id="1878833020" x="-1.4430939563138861E7" y="3956986.0294624064" >
		</node>
		<node id="1878833106" x="-1.443100299728957E7" y="3957134.9109313646" >
		</node>
		<node id="1878833357" x="-1.4437696826796878E7" y="3967049.9394477224" >
		</node>
		<node id="1878833359" x="-1.4437740103691444E7" y="3967049.398727407" >
		</node>
		<node id="1878833360" x="-1.4438625853346083E7" y="3971624.2041200353" >
		</node>
		<node id="1878833431" x="-1.4455135942016043E7" y="4024103.3687954587" >
		</node>
		<node id="1887650795" x="-1.4440444047815505E7" y="3988264.240377077" >
		</node>
		<node id="2055025723" x="-1.4439798128045209E7" y="4003982.994902157" >
		</node>
		<node id="2055062016" x="-1.4439936300793217E7" y="4004167.023988228" >
		</node>
		<node id="2376711248" x="-1.4420181831580818E7" y="3952101.78134806" >
		</node>
		<node id="2376711251" x="-1.4420247941864515E7" y="3952195.127110128" >
		</node>
		<node id="2382759816" x="-1.4419257871301701E7" y="3951020.720574863" >
		</node>
		<node id="2382759825" x="-1.4419400596570192E7" y="3950779.9243505895" >
		</node>
		<node id="2382773355" x="-1.4419290525604498E7" y="3949504.837528514" >
		</node>
		<node id="2382773368" x="-1.441921975116403E7" y="3949585.973083802" >
		</node>
		<node id="2390766836" x="-1.4438756043737814E7" y="3971863.7623279076" >
		</node>
		<node id="2463034153" x="-1.4437814274238097E7" y="3969044.3707597135" >
		</node>
		<node id="2463034154" x="-1.4437862582376728E7" y="3969042.3659010446" >
		</node>
		<node id="2463034156" x="-1.443783732116021E7" y="3969049.8501364854" >
		</node>
		<node id="2477237892" x="-1.4455142282003995E7" y="4032695.995475631" >
		</node>
		<node id="2477237893" x="-1.4455173803663861E7" y="4032694.755850528" >
		</node>
		<node id="2786658918" x="-1.4440678823971525E7" y="3998644.815913916" >
		</node>
		<node id="2786692937" x="-1.4444381455747938E7" y="4011149.577413292" >
		</node>
		<node id="2786692981" x="-1.444538911161598E7" y="4011860.0071137096" >
		</node>
		<node id="2786712371" x="-1.4448355379863262E7" y="4015993.598894891" >
		</node>
		<node id="2786712382" x="-1.4448135922278674E7" y="4015831.513564263" >
		</node>
		<node id="2786720246" x="-1.445180258526005E7" y="4018742.938225897" >
		</node>
		<node id="2786747231" x="-1.4451977007966705E7" y="4028561.1338222795" >
		</node>
		<node id="2786747240" x="-1.4452477140500493E7" y="4028617.6135666245" >
		</node>
		<node id="2786747255" x="-1.4452490287500497E7" y="4028580.913717472" >
		</node>
		<node id="298541413" x="-1.4454735982322358E7" y="4025315.086525112" >
		</node>
		<node id="298560277" x="-1.4454714750844747E7" y="4031673.089299445" >
		</node>
		<node id="298560282" x="-1.4454690814008566E7" y="4031631.100152057" >
		</node>
		<node id="298560287" x="-1.4454586774393713E7" y="4031665.771421693" >
		</node>
		<node id="298567010" x="-1.4453379758646779E7" y="4029672.9661585065" >
		</node>
		<node id="299644453" x="-1.4455143947946345E7" y="4024068.2685729107" >
		</node>
		<node id="299644457" x="-1.4455019204810675E7" y="4024504.0105283326" >
		</node>
		<node id="299644466" x="-1.4454855980709756E7" y="4024977.532254522" >
		</node>
		<node id="299644498" x="-1.4454683189085608E7" y="4025398.386142094" >
		</node>
		<node id="299644566" x="-1.4453572313597303E7" y="4026893.9363001273" >
		</node>
		<node id="299644582" x="-1.4452314632711567E7" y="4028023.749128011" >
		</node>
		<node id="299644596" x="-1.4452553676344696E7" y="4028884.3425927344" >
		</node>
		<node id="299644597" x="-1.4452586336466571E7" y="4028915.838752703" >
		</node>
		<node id="299644598" x="-1.4452631531602334E7" y="4028957.5721169594" >
		</node>
		<node id="299657137" x="-1.4454992389929594E7" y="4024445.134066643" >
		</node>
		<node id="299657334" x="-1.4455039431540253E7" y="4024448.77422172" >
		</node>
		<node id="299916444" x="-1.4451956521950737E7" y="4028475.1795590394" >
		</node>
		<node id="300209068" x="-1.4455068180407276E7" y="4024137.277915512" >
		</node>
		<node id="300209079" x="-1.4455126721456405E7" y="4024165.1133600394" >
		</node>
		<node id="301503052" x="-1.4452450458327439E7" y="4028387.290103682" >
		</node>
		<node id="301852228" x="-1.445351245502973E7" y="4020088.9688216434" >
		</node>
		<node id="301852238" x="-1.4453467398413286E7" y="4020097.220414634" >
		</node>
		<node id="301852243" x="-1.4453424937696068E7" y="4020061.9167141924" >
		</node>
		<node id="301852250" x="-1.4453462431347676E7" y="4020048.901306722" >
		</node>
		<node id="301852260" x="-1.4452709715524683E7" y="4019442.0106859533" >
		</node>
		<node id="301852268" x="-1.4452672537364328E7" y="4019446.482845239" >
		</node>
		<node id="303211255" x="-1.4451881390947375E7" y="4028548.973828295" >
		</node>
		<node id="303688515" x="-1.4454567003548898E7" y="4031387.057680544" >
		</node>
		<node id="303688516" x="-1.4454696784590216E7" y="4031853.2732139514" >
		</node>
		<node id="303688517" x="-1.4454683047281822E7" y="4031808.8612753884" >
		</node>
		<node id="303688518" x="-1.445464555933873E7" y="4031625.8527786983" >
		</node>
		<node id="303688519" x="-1.4454620993967144E7" y="4031624.7160087586" >
		</node>
		<node id="303688520" x="-1.4454500755358959E7" y="4031265.62598367" >
		</node>
		<node id="303688521" x="-1.445463411862745E7" y="4031666.24096188" >
		</node>
		<node id="303688522" x="-1.4454481941497017E7" y="4031206.8833099836" >
		</node>
		<node id="303688523" x="-1.4454467156349521E7" y="4031162.271107941" >
		</node>
		<node id="303688524" x="-1.4454405325059343E7" y="4030880.6775415875" >
		</node>
		<node id="303688526" x="-1.445423292299418E7" y="4030465.177202455" >
		</node>
		<node id="303688527" x="-1.4454217186884966E7" y="4030422.2050746162" >
		</node>
		<node id="303688529" x="-1.4454264716275712E7" y="4030460.263772311" >
		</node>
		<node id="303688530" x="-1.445425102087232E7" y="4030418.5598231023" >
		</node>
		<node id="303688535" x="-1.4454151979237845E7" y="4030123.1589490585" >
		</node>
		<node id="303688536" x="-1.4453972544010224E7" y="4029892.3617139137" >
		</node>
		<node id="303688541" x="-1.4454097141354734E7" y="4030067.3112729653" >
		</node>
		<node id="303688546" x="-1.4453949409998314E7" y="4029904.5114289625" >
		</node>
		<node id="303688547" x="-1.4453915275316957E7" y="4029882.8995415606" >
		</node>
		<node id="303688550" x="-1.44534509570537E7" y="4029707.501459914" >
		</node>
		<node id="303688552" x="-1.4453401934949594E7" y="4029657.4516924955" >
		</node>
		<node id="303688560" x="-1.4452084314968297E7" y="4028635.35414097" >
		</node>
		<node id="304384788" x="-1.4440280541090427E7" y="4000763.478888788" >
		</node>
		<node id="304384868" x="-1.4440257558920203E7" y="4000763.6912353234" >
		</node>
		<node id="304385111" x="-1.444025571939141E7" y="4000719.284710887" >
		</node>
		<node id="304385138" x="-1.4440279487564914E7" y="4000717.6851552073" >
		</node>
		<node id="304486358" x="-1.4449637028648116E7" y="4016997.619778632" >
		</node>
		<node id="305290594" x="-1.4420756284442352E7" y="3952500.0547860526" >
		</node>
		<node id="305290595" x="-1.4420653144259071E7" y="3952451.475318159" >
		</node>
		<node id="305290642" x="-1.4420748304157622E7" y="3952471.9356299588" >
		</node>
		<node id="305290644" x="-1.4420645564795706E7" y="3952423.341504959" >
		</node>
		<node id="306037749" x="-1.442380075714918E7" y="3953876.3635113533" >
		</node>
		<node id="306037750" x="-1.4423560007939553E7" y="3953793.584043445" >
		</node>
		<node id="306037940" x="-1.4424552828199383E7" y="3954256.45213409" >
		</node>
		<node id="306038093" x="-1.4423539037626661E7" y="3953815.5469915583" >
		</node>
		<node id="306038289" x="-1.4424511240541548E7" y="3954266.7110867454" >
		</node>
		<node id="306266139" x="-1.4420518919595167E7" y="3952363.7418400384" >
		</node>
		<node id="306294441" x="-1.441929531935772E7" y="3950257.550429227" >
		</node>
		<node id="306294442" x="-1.4419292084692217E7" y="3950220.5319464738" >
		</node>
		<node id="306294444" x="-1.4419254259067355E7" y="3950222.601074789" >
		</node>
		<node id="306294445" x="-1.4419257166121017E7" y="3950258.8948659766" >
		</node>
		<node id="306294566" x="-1.4418998925491739E7" y="3950921.070967251" >
		</node>
		<node id="306669674" x="-1.4415724468628943E7" y="3945074.543669333" >
		</node>
		<node id="306669676" x="-1.4415742169007635E7" y="3945115.3091405984" >
		</node>
		<node id="306670115" x="-1.4416958146050092E7" y="3946472.1775086913" >
		</node>
		<node id="308857445" x="-1.4442742638098119E7" y="3993863.5683474224" >
		</node>
		<node id="308857899" x="-1.4442655879422072E7" y="3994356.5586978826" >
		</node>
		<node id="308857901" x="-1.4442474848699227E7" y="3994529.134264952" >
		</node>
		<node id="308857926" x="-1.4442631056582524E7" y="3993620.468483718" >
		</node>
		<node id="309279829" x="-1.4455923375552671E7" y="4033888.8996993406" >
		</node>
		<node id="309814755" x="-1.4456079726077573E7" y="4037200.2197205354" >
		</node>
		<node id="309985096" x="-1.441836331495311E7" y="3947696.0350962454" >
		</node>
		<node id="309985100" x="-1.4418407048158756E7" y="3947777.7855803533" >
		</node>
		<node id="309985146" x="-1.4418569243169421E7" y="3947752.7561567747" >
		</node>
		<node id="309985237" x="-1.4418408952359956E7" y="3947655.516958673" >
		</node>
		<node id="309985242" x="-1.4418381379329521E7" y="3947578.28323538" >
		</node>
		<node id="309985244" x="-1.441822512822148E7" y="3947483.252875436" >
		</node>
		<node id="309985245" x="-1.4418013646695614E7" y="3947328.651684761" >
		</node>
		<node id="309985300" x="-1.441832889488663E7" y="3947660.7542630155" >
		</node>
		<node id="309986160" x="-1.4419245504588334E7" y="3949618.537979518" >
		</node>
		<node id="309986161" x="-1.4419240291604314E7" y="3949553.184705081" >
		</node>
		<node id="309986163" x="-1.441920437080946E7" y="3949621.516780637" >
		</node>
		<node id="309986165" x="-1.441919949128824E7" y="3949556.0813508034" >
		</node>
		<node id="309986417" x="-1.4419186108690705E7" y="3948955.491957523" >
		</node>
		<node id="309986418" x="-1.4419183529269828E7" y="3948917.745990352" >
		</node>
		<node id="309986444" x="-1.441915606046197E7" y="3948957.3410200058" >
		</node>
		<node id="309986463" x="-1.4419153188817691E7" y="3948919.477629119" >
		</node>
		<node id="309986680" x="-1.4419299983931124E7" y="3950862.3516161917" >
		</node>
		<node id="309986683" x="-1.4419305198945742E7" y="3950928.1025798703" >
		</node>
		<node id="309986694" x="-1.4419340352621539E7" y="3950926.2518111574" >
		</node>
		<node id="309986744" x="-1.4419335335537532E7" y="3950860.632683712" >
		</node>
		<node id="311654749" x="-1.4420100424239196E7" y="3952165.8817185867" >
		</node>
		<node id="311654750" x="-1.4420027073535834E7" y="3952131.320824822" >
		</node>
		<node id="311654783" x="-1.4420049701991443E7" y="3952169.7504463987" >
		</node>
		<node id="311654839" x="-1.4419975303594258E7" y="3952134.623498282" >
		</node>
		<node id="312100014" x="-1.4449354930978367E7" y="4016737.9958286867" >
		</node>
		<node id="312100041" x="-1.4446598699403465E7" y="4014057.9817669108" >
		</node>
		<node id="313401195" x="-1.4414551071423626E7" y="3944175.439347031" >
		</node>
		<node id="313401350" x="-1.4414574550236473E7" y="3944162.7958740653" >
		</node>
		<node id="3176165703" x="-1.4459323066455418E7" y="4052834.632521879" >
		</node>
		<node id="3176165705" x="-1.4459753465630805E7" y="4052790.0048352433" >
		</node>
		<node id="3176165711" x="-1.445994760864424E7" y="4052732.1523611634" >
		</node>
		<node id="3176165721" x="-1.4459660978642013E7" y="4052802.2794422805" >
		</node>
		<node id="335625448" x="-1.4411932389887756E7" y="3942195.5277669257" >
		</node>
		<node id="335625832" x="-1.4411768728217183E7" y="3942040.2867707107" >
		</node>
		<node id="335626027" x="-1.4413051053765137E7" y="3943071.8481030203" >
		</node>
		<node id="335626028" x="-1.4412689372911789E7" y="3942856.9568439648" >
		</node>
		<node id="3393162716" x="-1.4457238659215325E7" y="4039985.8305776753" >
		</node>
		<node id="3393162726" x="-1.4457512286866589E7" y="4040240.543091575" >
		</node>
		<node id="3393162753" x="-1.4457481467061754E7" y="4040250.0169236558" >
		</node>
		<node id="351977407" x="-1.4441190410093477E7" y="3990702.1122162146" >
		</node>
		<node id="351977409" x="-1.4441214616221158E7" y="3990626.122136404" >
		</node>
		<node id="351977410" x="-1.44412749774219E7" y="3990489.9581337404" >
		</node>
		<node id="351977411" x="-1.4441336571285807E7" y="3990347.5611459333" >
		</node>
		<node id="351977412" x="-1.4441415353557633E7" y="3990175.422754526" >
		</node>
		<node id="351977413" x="-1.4441446597530527E7" y="3990102.6464703726" >
		</node>
		<node id="351977418" x="-1.444153412508582E7" y="3989742.625846025" >
		</node>
		<node id="351977421" x="-1.444150315504647E7" y="3989617.127908202" >
		</node>
		<node id="351977654" x="-1.4441181717834875E7" y="3989248.4569977527" >
		</node>
		<node id="351977661" x="-1.4441472026946995E7" y="3989745.3495131233" >
		</node>
		<node id="351977773" x="-1.444114437704047E7" y="3990627.567735502" >
		</node>
		<node id="351977774" x="-1.4441122726249324E7" y="3990707.493147082" >
		</node>
		<node id="351978353" x="-1.4441105734853268E7" y="3988962.2326859306" >
		</node>
		<node id="351978995" x="-1.4441241519502273E7" y="3990402.6372318272" >
		</node>
		<node id="351979668" x="-1.4441509176940126E7" y="3989959.5689391093" >
		</node>
		<node id="351979759" x="-1.4441470451112933E7" y="3990050.1549807377" >
		</node>
		<node id="351979849" x="-1.4441377714179406E7" y="3990105.765982168" >
		</node>
		<node id="351979948" x="-1.4441403327272391E7" y="3990049.184929501" >
		</node>
		<node id="351980091" x="-1.4441458813573845E7" y="3989920.251914133" >
		</node>
		<node id="351980144" x="-1.4441426809252948E7" y="3990001.377947998" >
		</node>
		<node id="351980340" x="-1.4441438708132686E7" y="3989905.2453356273" >
		</node>
		<node id="351980344" x="-1.4441421972134158E7" y="3989986.780223573" >
		</node>
		<node id="351980488" x="-1.4441430904579623E7" y="3989771.4753268394" >
		</node>
		<node id="351980982" x="-1.4441439253686901E7" y="3989626.996660101" >
		</node>
		<node id="351981077" x="-1.4441531744702954E7" y="3989957.88754826" >
		</node>
		<node id="351981079" x="-1.444155493691308E7" y="3989906.5636596167" >
		</node>
		<node id="351981082" x="-1.4441570530625861E7" y="3989748.1826407765" >
		</node>
		<node id="351981132" x="-1.444122327834399E7" y="3989305.595181475" >
		</node>
		<node id="351981137" x="-1.4441450520772541E7" y="3989593.7919323784" >