<?xml version="1.0"?>
<!DOCTYPE plans SYSTEM "http://www.matsim.org/files/dtd/plans_v4.dtd">
<plans xml:lang="de-CH">
	<person id="1">
		<plan selected="yes">
			<act type="h" x="-14451064.60540639" y="4018207.7736042817" end_time="00:11:00" />
			<leg mode="car" />
			<act type="h" x="-14439938.094553197" y="3984294.018155422" start_time="00:11:00" end_time="08:11:00" />
		</plan>
	</person>
</plans>
