<?xml version="1.0" encoding="UTF-8"?>
<!DOCTYPE network SYSTEM "http://www.matsim.org/files/dtd/network_v2.dtd">
<network>
	<!-- ====================================================================== -->
	<nodes>
		<node id="9365927423" x="-1.4449375243744638E7" y="3989720.099050841">
		</node>
		<node id="351969923" x="-1.4445739301886853E7" y="3989910.490777338">
		</node>
		<node id="351978650" x="-1.444150959784064E7" y="3989984.0001794267">
		</node>
		<node id="2780647152" x="-1.444882459651633E7" y="3986071.002394126">
		</node>
		<node id="352880477" x="-1.4445141241730459E7" y="3986150.871996646">
		</node>
		<node id="8746214723" x="-1.4440269249848126E7" y="3986593.7067802143">
		</node>
	</nodes>
	<!-- ====================================================================== -->
	
	<!-- ====================================================================== -->
</network>
