<?xml version="1.0" ?>
<!DOCTYPE plans SYSTEM "http://www.matsim.org/files/dtd/plans_v4.dtd">
<plans xml:lang="de-CH"><person id="1"><plan selected="yes"><act type="h" x="-14448885.7745142" y="3989705.6845159973" end_time="04:00:00" /><leg mode="car" /><act type="h" x="-14442345.513263492" y="3989973.2355362596" start_time="04:00:00" end_time="12:00:00" /></plan></person><person id="2"><plan selected="yes"><act type="h" x="-14444128.896230258" y="3990113.293825012" end_time="04:00:00" /><leg mode="car" /><act type="h" x="-14444342.797160508" y="3989994.2908125557" start_time="04:00:00" end_time="12:00:00" /></plan></person><person id="3"><plan selected="yes"><act type="h" x="-14449371.06512744" y="3987462.361899655" end_time="05:00:00" /><leg mode="car" /><act type="h" x="-14441963.907845" y="3986451.037367951" start_time="05:00:00" end_time="13:00:00" /></plan></person><person id="4"><plan selected="yes"><act type="h" x="-14444643.61096722" y="3989908.125644345" end_time="06:00:00" /><leg mode="car" /><act type="h" x="-14445051.225797333" y="3988077.6804825175" start_time="06:00:00" end_time="14:00:00" /></plan></person><person id="5"><plan selected="yes"><act type="h" x="-14445237.96054504" y="3989261.40765433" end_time="06:00:00" /><leg mode="car" /><act type="h" x="-14449384.520056127" y="3987560.661831142" start_time="06:00:00" end_time="14:00:00" /></plan></person><person id="6"><plan selected="yes"><act type="h" x="-14449074.82646156" y="3989724.2847335776" end_time="06:00:00" /><leg mode="car" /><act type="h" x="-14443061.961401459" y="3989955.1098517487" start_time="06:00:00" end_time="14:00:00" /></plan></person><person id="7"><plan selected="yes"><act type="h" x="-14445082.01036215" y="3987617.8555598482" end_time="06:00:00" /><leg mode="car" /><act type="h" x="-14445360.368259506" y="3989282.92371615" start_time="06:00:00" end_time="14:00:00" /></plan></person><person id="8"><plan selected="yes"><act type="h" x="-14441388.451455288" y="3986457.5373635152" end_time="06:00:00" /><leg mode="car" /><act type="h" x="-14445019.786560971" y="3987486.3410655153" start_time="06:00:00" end_time="14:00:00" /></plan></person><person id="9"><plan selected="yes"><act type="h" x="-14446468.483821917" y="3986318.9268711256" end_time="06:00:00" /><leg mode="car" /><act type="h" x="-14440425.429083494" y="3988437.465189579" start_time="06:00:00" end_time="14:00:00" /></plan></person><person id="10"><plan selected="yes"><act type="h" x="-14448358.00824117" y="3989605.666928723" end_time="06:00:00" /><leg mode="car" /><act type="h" x="-14449038.139783187" y="3989238.818027937" start_time="06:00:00" end_time="14:00:00" /></plan></person><person id="11"><plan selected="yes"><act type="h" x="-14448474.154779136" y="3986199.7371585574" end_time="07:00:00" /><leg mode="car" /><act type="h" x="-14448890.557379926" y="3986224.853879561" start_time="07:00:00" end_time="15:00:00" /></plan></person><person id="12"><plan selected="yes"><act type="h" x="-14446745.999149963" y="3986351.7069146144" end_time="07:00:00" /><leg mode="car" /><act type="h" x="-14443779.88508136" y="3986331.1977496915" start_time="07:00:00" end_time="15:00:00" /></plan></person><person id="13"><plan selected="yes"><act type="h" x="-14449140.962900195" y="3989064.249113051" end_time="07:00:00" /><leg mode="car" /><act type="h" x="-14441312.105022747" y="3986466.2654284295" start_time="07:00:00" end_time="15:00:00" /></plan></person><person id="14"><plan selected="yes"><act type="h" x="-14443514.597129121" y="3986292.356465229" end_time="07:00:00" /><leg mode="car" /><act type="h" x="-14444939.607069328" y="3986394.8745616726" start_time="07:00:00" end_time="15:00:00" /></plan></person><person id="15"><plan selected="yes"><act type="h" x="-14441371.724468451" y="3989472.6470676735" end_time="07:00:00" /><leg mode="car" /><act type="h" x="-14448541.363163706" y="3989575.5647662897" start_time="07:00:00" end_time="15:00:00" /></plan></person><person id="16"><plan selected="yes"><act type="h" x="-14444243.488096816" y="3986284.735455781" end_time="07:00:00" /><leg mode="car" /><act type="h" x="-14445085.088735338" y="3988080.066562359" start_time="07:00:00" end_time="15:00:00" /></plan></person><person id="17"><plan selected="yes"><act type="h" x="-14445056.919618234" y="3987619.0525423065" end_time="07:00:00" /><leg mode="car" /><act type="h" x="-14448703.621917306" y="3989519.105130611" start_time="07:00:00" end_time="15:00:00" /></plan></person><person id="18"><plan selected="yes"><act type="h" x="-14440257.202250531" y="3986604.64995277" end_time="08:00:00" /><leg mode="car" /><act type="h" x="-14445120.132495666" y="3986535.539176674" start_time="08:00:00" end_time="16:00:00" /></plan></person><person id="19"><plan selected="yes"><act type="h" x="-14446844.995870972" y="3986390.5411612475" end_time="08:00:00" /><leg mode="car" /><act type="h" x="-14440912.273570178" y="3988707.806682613" start_time="08:00:00" end_time="16:00:00" /></plan></person><person id="20"><plan selected="yes"><act type="h" x="-14448885.926017258" y="3986263.235472057" end_time="08:00:00" /><leg mode="car" /><act type="h" x="-14445068.141914232" y="3986827.6021856195" start_time="08:00:00" end_time="16:00:00" /></plan></person><person id="21"><plan selected="yes"><act type="h" x="-14449091.233524952" y="3989103.375382601" end_time="08:00:00" /><leg mode="car" /><act type="h" x="-14448651.968096595" y="3986219.6346257958" start_time="08:00:00" end_time="16:00:00" /></plan></person><person id="22"><plan selected="yes"><act type="h" x="-14449060.655718697" y="3986683.1074528857" end_time="08:00:00" /><leg mode="car" /><act type="h" x="-14441404.040920354" y="3989653.303315084" start_time="08:00:00" end_time="16:00:00" /></plan></person><person id="23"><plan selected="yes"><act type="h" x="-14440277.284629771" y="3988259.252639133" end_time="08:00:00" /><leg mode="car" /><act type="h" x="-14445244.454262467" y="3986240.220815371" start_time="08:00:00" end_time="16:00:00" /></plan></person><person id="24"><plan selected="yes"><act type="h" x="-14441572.6964205" y="3989621.3036574726" end_time="08:00:00" /><leg mode="car" /><act type="h" x="-14445014.330390582" y="3986323.907495784" start_time="08:00:00" end_time="16:00:00" /></plan></person><person id="25"><plan selected="yes"><act type="h" x="-14449362.545596458" y="3987548.2346286913" end_time="08:00:00" /><leg mode="car" /><act type="h" x="-14446184.678776396" y="3986323.289337549" start_time="08:00:00" end_time="16:00:00" /></plan></person><person id="26"><plan selected="yes"><act type="h" x="-14445074.480088767" y="3986622.7941173497" end_time="08:00:00" /><leg mode="car" /><act type="h" x="-14445073.135443175" y="3988322.7167480956" start_time="08:00:00" end_time="16:00:00" /></plan></person><person id="27"><plan selected="yes"><act type="h" x="-14443137.353468452" y="3989973.4936732794" end_time="08:00:00" /><leg mode="car" /><act type="h" x="-14440852.037692318" y="3986531.661182543" start_time="08:00:00" end_time="16:00:00" /></plan></person><person id="28"><plan selected="yes"><act type="h" x="-14448419.169685667" y="3989724.374513916" end_time="08:00:00" /><leg mode="car" /><act type="h" x="-14448892.25667048" y="3986067.409500555" start_time="08:00:00" end_time="16:00:00" /></plan></person><person id="29"><plan selected="yes"><act type="h" x="-14445038.372567981" y="3988591.1664745947" end_time="08:00:00" /><leg mode="car" /><act type="h" x="-14446436.518454231" y="3989754.82612437" start_time="08:00:00" end_time="16:00:00" /></plan></person><person id="30"><plan selected="yes"><act type="h" x="-14445978.168187631" y="3989717.4971406716" end_time="08:00:00" /><leg mode="car" /><act type="h" x="-14440266.067858703" y="3988144.8894749978" start_time="08:00:00" end_time="16:00:00" /></plan></person><person id="31"><plan selected="yes"><act type="h" x="-14444750.740295483" y="3986325.0405059364" end_time="09:00:00" /><leg mode="car" /><act type="h" x="-14444169.637689702" y="3986289.1335003264" start_time="09:00:00" end_time="17:00:00" /></plan></person><person id="32"><plan selected="yes"><act type="h" x="-14444117.19065338" y="3986240.0110375835" end_time="09:00:00" /><leg mode="car" /><act type="h" x="-14440413.142279122" y="3987918.732509146" start_time="09:00:00" end_time="17:00:00" /></plan></person><person id="33"><plan selected="yes"><act type="h" x="-14441105.776479233" y="3988962.221356627" end_time="09:00:00" /><leg mode="car" /><act type="h" x="-14441477.248939762" y="3989659.623644377" start_time="09:00:00" end_time="17:00:00" /></plan></person><person id="34"><plan selected="yes"><act type="h" x="-14449106.177302653" y="3988191.145966311" end_time="09:00:00" /><leg mode="car" /><act type="h" x="-14445448.364571726" y="3989394.113448478" start_time="09:00:00" end_time="17:00:00" /></plan></person><person id="35"><plan selected="yes"><act type="h" x="-14445097.863922726" y="3987692.0692201233" end_time="09:00:00" /><leg mode="car" /><act type="h" x="-14440425.097880794" y="3988431.7872844255" start_time="09:00:00" end_time="17:00:00" /></plan></person><person id="36"><plan selected="yes"><act type="h" x="-14448837.429714605" y="3989442.5014449884" end_time="09:00:00" /><leg mode="car" /><act type="h" x="-14440485.619506972" y="3988485.22893856" start_time="09:00:00" end_time="17:00:00" /></plan></person><person id="37"><plan selected="yes"><act type="h" x="-14445438.234258486" y="3986280.1158392136" end_time="10:00:00" /><leg mode="car" /><act type="h" x="-14443951.69767412" y="3986309.8640070944" start_time="10:00:00" end_time="18:00:00" /></plan></person><person id="38"><plan selected="yes"><act type="h" x="-14445413.842290387" y="3989356.878648622" end_time="10:00:00" /><leg mode="car" /><act type="h" x="-14448887.724737847" y="3986228.8481588494" start_time="10:00:00" end_time="18:00:00" /></plan></person><person id="39"><plan selected="yes"><act type="h" x="-14440210.48199337" y="3986704.4356679674" end_time="10:00:00" /><leg mode="car" /><act type="h" x="-14441731.823546702" y="3989958.755069228" start_time="10:00:00" end_time="18:00:00" /></plan></person><person id="40"><plan selected="yes"><act type="h" x="-14448621.582078384" y="3989551.6599150277" end_time="10:00:00" /><leg mode="car" /><act type="h" x="-14445801.706091812" y="3986343.856721617" start_time="10:00:00" end_time="18:00:00" /></plan></person><person id="41"><plan selected="yes"><act type="h" x="-14445291.981041685" y="3986478.585227282" end_time="10:00:00" /><leg mode="car" /><act type="h" x="-14449075.743527556" y="3988376.11298119" start_time="10:00:00" end_time="18:00:00" /></plan></person><person id="42"><plan selected="yes"><act type="h" x="-14447057.583505088" y="3989718.137613313" end_time="10:00:00" /><leg mode="car" /><act type="h" x="-14443976.537733518" y="3986311.6204110044" start_time="10:00:00" end_time="18:00:00" /></plan></person><person id="43"><plan selected="yes"><act type="h" x="-14445024.30828143" y="3986322.7909937627" end_time="10:00:00" /><leg mode="car" /><act type="h" x="-14445081.949473511" y="3986455.490087348" start_time="10:00:00" end_time="18:00:00" /></plan></person><person id="44"><plan selected="yes"><act type="h" x="-14445387.498424342" y="3989316.6743171834" end_time="11:00:00" /><leg mode="car" /><act type="h" x="-14445090.269127673" y="3987665.1812266884" start_time="11:00:00" end_time="19:00:00" /></plan></person><person id="45"><plan selected="yes"><act type="h" x="-14445408.497788457" y="3986375.617273995" end_time="11:00:00" /><leg mode="car" /><act type="h" x="-14447005.8664065" y="3989743.137192533" start_time="11:00:00" end_time="19:00:00" /></plan></person><person id="46"><plan selected="yes"><act type="h" x="-14440257.202250531" y="3986604.64995277" end_time="11:00:00" /><leg mode="car" /><act type="h" x="-14448912.402037667" y="3986331.055606742" start_time="11:00:00" end_time="19:00:00" /></plan></person><person id="47"><plan selected="yes"><act type="h" x="-14449370.51352328" y="3987481.890790782" end_time="11:00:00" /><leg mode="car" /><act type="h" x="-14444420.129054312" y="3990011.492723724" start_time="11:00:00" end_time="19:00:00" /></plan></person><person id="48"><plan selected="yes"><act type="h" x="-14446705.62360339" y="3986335.5417001075" end_time="12:00:00" /><leg mode="car" /><act type="h" x="-14443987.079796238" y="3986236.827652913" start_time="12:00:00" end_time="20:00:00" /></plan></person><person id="49"><plan selected="yes"><act type="h" x="-14446468.483821917" y="3986318.9268711256" end_time="12:00:00" /><leg mode="car" /><act type="h" x="-14448171.707192587" y="3986183.5516926283" start_time="12:00:00" end_time="20:00:00" /></plan></person><person id="50"><plan selected="yes"><act type="h" x="-14445779.583404012" y="3989910.5430158647" end_time="13:00:00" /><leg mode="car" /><act type="h" x="-14445103.079786006" y="3987696.305212413" start_time="13:00:00" end_time="21:00:00" /></plan></person><person id="51"><plan selected="yes"><act type="h" x="-14441132.436918918" y="3989056.796737549" end_time="13:00:00" /><leg mode="car" /><act type="h" x="-14445219.15342364" y="3989593.1398118385" start_time="13:00:00" end_time="21:00:00" /></plan></person><person id="52"><plan selected="yes"><act type="h" x="-14443977.422964996" y="3986332.2279190924" end_time="13:00:00" /><leg mode="car" /><act type="h" x="-14441693.646039838" y="3990016.514765817" start_time="13:00:00" end_time="21:00:00" /></plan></person><person id="53"><plan selected="yes"><act type="h" x="-14445475.168144612" y="3989858.8921500947" end_time="14:00:00" /><leg mode="car" /><act type="h" x="-14449367.57941128" y="3987250.5012301784" start_time="14:00:00" end_time="22:00:00" /></plan></person><person id="54"><plan selected="yes"><act type="h" x="-14448971.045791203" y="3986506.25170608" end_time="14:00:00" /><leg mode="car" /><act type="h" x="-14447851.936812177" y="3989661.811865748" start_time="14:00:00" end_time="22:00:00" /></plan></person><person id="55"><plan selected="yes"><act type="h" x="-14440269.249848126" y="3986593.7067802143" end_time="15:00:00" /><leg mode="car" /><act type="h" x="-14445219.15342364" y="3989593.1398118385" start_time="15:00:00" end_time="23:00:00" /></plan></person><person id="56"><plan selected="yes"><act type="h" x="-14445779.583404012" y="3989910.5430158647" end_time="15:00:00" /><leg mode="car" /><act type="h" x="-14440363.080253901" y="3988358.1357233888" start_time="15:00:00" end_time="23:00:00" /></plan></person><person id="57"><plan selected="yes"><act type="h" x="-14445274.80776103" y="3986479.5873214114" end_time="15:00:00" /><leg mode="car" /><act type="h" x="-14445374.396256205" y="3986180.7230724418" start_time="15:00:00" end_time="23:00:00" /></plan></person><person id="58"><plan selected="yes"><act type="h" x="-14445133.19441879" y="3986688.731836294" end_time="15:00:00" /><leg mode="car" /><act type="h" x="-14448520.614161257" y="3989580.5135489106" start_time="15:00:00" end_time="23:00:00" /></plan></person><person id="59"><plan selected="yes"><act type="h" x="-14449352.585124522" y="3987594.930698138" end_time="16:00:00" /><leg mode="car" /><act type="h" x="-14440413.491138833" y="3988241.871168104" start_time="16:00:00" end_time="00:00:00" /></plan></person><person id="60"><plan selected="yes"><act type="h" x="-14445076.174827155" y="3987497.9186840043" end_time="16:00:00" /><leg mode="car" /><act type="h" x="-14445413.842290387" y="3989356.878648622" start_time="16:00:00" end_time="00:00:00" /></plan></person><person id="61"><plan selected="yes"><act type="h" x="-14449339.851849554" y="3987175.7319441317" end_time="16:00:00" /><leg mode="car" /><act type="h" x="-14448606.526549727" y="3986127.5415520538" start_time="16:00:00" end_time="00:00:00" /></plan></person><person id="62"><plan selected="yes"><act type="h" x="-14445382.71691668" y="3986308.822935118" end_time="16:00:00" /><leg mode="car" /><act type="h" x="-14440260.547441116" y="3987178.5129357707" start_time="16:00:00" end_time="00:00:00" /></plan></person><person id="63"><plan selected="yes"><act type="h" x="-14441095.935488556" y="3988933.06582718" end_time="16:00:00" /><leg mode="car" /><act type="h" x="-14441683.15151139" y="3986415.2338355253" start_time="16:00:00" end_time="00:00:00" /></plan></person><person id="64"><plan selected="yes"><act type="h" x="-14440264.642918866" y="3988071.527608005" end_time="16:00:00" /><leg mode="car" /><act type="h" x="-14443707.779136056" y="3986334.6924400437" start_time="16:00:00" end_time="00:00:00" /></plan></person><person id="65"><plan selected="yes"><act type="h" x="-14441097.225169972" y="3989074.783402205" end_time="16:00:00" /><leg mode="car" /><act type="h" x="-14444288.51336733" y="3986291.814598152" start_time="16:00:00" end_time="00:00:00" /></plan></person><person id="66"><plan selected="yes"><act type="h" x="-14445414.042198643" y="3989570.4651077185" end_time="16:00:00" /><leg mode="car" /><act type="h" x="-14440371.792792287" y="3986764.0360319396" start_time="16:00:00" end_time="00:00:00" /></plan></person><person id="67"><plan selected="yes"><act type="h" x="-14443957.464648513" y="3986310.863248051" end_time="16:00:00" /><leg mode="car" /><act type="h" x="-14441620.149001235" y="3986427.9921868886" start_time="16:00:00" end_time="00:00:00" /></plan></person><person id="68"><plan selected="yes"><act type="h" x="-14443877.766322173" y="3986263.9541828227" end_time="17:00:00" /><leg mode="car" /><act type="h" x="-14445116.003925964" y="3989840.069729284" start_time="17:00:00" end_time="01:00:00" /></plan></person><person id="69"><plan selected="yes"><act type="h" x="-14449380.789089754" y="3987299.3193525127" end_time="17:00:00" /><leg mode="car" /><act type="h" x="-14443886.939922752" y="3986292.5379077937" start_time="17:00:00" end_time="01:00:00" /></plan></person><person id="70"><plan selected="yes"><act type="h" x="-14443951.220013596" y="3986245.5096023576" end_time="17:00:00" /><leg mode="car" /><act type="h" x="-14443903.455578802" y="3986280.265093591" start_time="17:00:00" end_time="01:00:00" /></plan></person><person id="71"><plan selected="yes"><act type="h" x="-14448900.64909569" y="3986231.1213466874" end_time="17:00:00" /><leg mode="car" /><act type="h" x="-14446929.723682085" y="3986338.847986973" start_time="17:00:00" end_time="01:00:00" /></plan></person><person id="72"><plan selected="yes"><act type="h" x="-14449380.789089754" y="3987299.3193525127" end_time="17:00:00" /><leg mode="car" /><act type="h" x="-14441388.451455288" y="3986457.5373635152" start_time="17:00:00" end_time="01:00:00" /></plan></person><person id="73"><plan selected="yes"><act type="h" x="-14445238.28254586" y="3986306.5653221942" end_time="17:00:00" /><leg mode="car" /><act type="h" x="-14449330.826187704" y="3987156.9390995246" start_time="17:00:00" end_time="01:00:00" /></plan></person><person id="74"><plan selected="yes"><act type="h" x="-14443082.658908794" y="3989969.209226768" end_time="17:00:00" /><leg mode="car" /><act type="h" x="-14444423.554162094" y="3990055.699599438" start_time="17:00:00" end_time="01:00:00" /></plan></person><person id="75"><plan selected="yes"><act type="h" x="-14449197.879604973" y="3989702.507800755" end_time="18:00:00" /><leg mode="car" /><act type="h" x="-14445125.059138289" y="3989870.244121805" start_time="18:00:00" end_time="02:00:00" /></plan></person><person id="76"><plan selected="yes"><act type="h" x="-14447007.565551385" y="3986335.8190006576" end_time="18:00:00" /><leg mode="car" /><act type="h" x="-14445116.551786026" y="3987553.9655969124" start_time="18:00:00" end_time="02:00:00" /></plan></person><person id="77"><plan selected="yes"><act type="h" x="-14444917.719386855" y="3990002.0371715366" end_time="18:00:00" /><leg mode="car" /><act type="h" x="-14443951.566107867" y="3986273.1836688453" start_time="18:00:00" end_time="02:00:00" /></plan></person><person id="78"><plan selected="yes"><act type="h" x="-14449075.780641215" y="3988396.6726783193" end_time="18:00:00" /><leg mode="car" /><act type="h" x="-14445068.464382889" y="3987682.834455344" start_time="18:00:00" end_time="02:00:00" /></plan></person><person id="79"><plan selected="yes"><act type="h" x="-14445117.804147633" y="3987762.0373213673" end_time="18:00:00" /><leg mode="car" /><act type="h" x="-14448605.791158319" y="3989688.653491466" start_time="18:00:00" end_time="02:00:00" /></plan></person><person id="80"><plan selected="yes"><act type="h" x="-14444855.974714179" y="3986378.383425709" end_time="18:00:00" /><leg mode="car" /><act type="h" x="-14445124.385678267" y="3989844.208323952" start_time="18:00:00" end_time="02:00:00" /></plan></person><person id="81"><plan selected="yes"><act type="h" x="-14444970.093291203" y="3986250.620086689" end_time="18:00:00" /><leg mode="car" /><act type="h" x="-14443861.30280735" y="3990000.581139779" start_time="18:00:00" end_time="02:00:00" /></plan></person><person id="82"><plan selected="yes"><act type="h" x="-14444646.406313179" y="3986303.4345524283" end_time="19:00:00" /><leg mode="car" /><act type="h" x="-14445201.894969372" y="3989772.050006831" start_time="19:00:00" end_time="03:00:00" /></plan></person><person id="83"><plan selected="yes"><act type="h" x="-14443794.353238964" y="3990003.6863955446" end_time="19:00:00" /><leg mode="car" /><act type="h" x="-14442990.020882444" y="3989950.58560689" start_time="19:00:00" end_time="03:00:00" /></plan></person><person id="84"><plan selected="yes"><act type="h" x="-14448791.58281873" y="3989635.0929468987" end_time="19:00:00" /><leg mode="car" /><act type="h" x="-14441436.222024621" y="3989567.0535875545" start_time="19:00:00" end_time="03:00:00" /></plan></person><person id="85"><plan selected="yes"><act type="h" x="-14440564.61986375" y="3988473.0541087748" end_time="19:00:00" /><leg mode="car" /><act type="h" x="-14446706.287682025" y="3989761.6877853367" start_time="19:00:00" end_time="03:00:00" /></plan></person><person id="86"><plan selected="yes"><act type="h" x="-14449028.748297086" y="3989253.6060777074" end_time="19:00:00" /><leg mode="car" /><act type="h" x="-14447851.936812177" y="3989661.811865748" start_time="19:00:00" end_time="03:00:00" /></plan></person><person id="87"><plan selected="yes"><act type="h" x="-14445079.822345031" y="3987681.8156030555" end_time="19:00:00" /><leg mode="car" /><act type="h" x="-14440397.618499536" y="3986523.5292415316" start_time="19:00:00" end_time="03:00:00" /></plan></person><person id="88"><plan selected="yes"><act type="h" x="-14445448.364571726" y="3989394.113448478" end_time="19:00:00" /><leg mode="car" /><act type="h" x="-14443184.8025533" y="3986347.3956175884" start_time="19:00:00" end_time="03:00:00" /></plan></person><person id="89"><plan selected="yes"><act type="h" x="-14440452.304832239" y="3986509.5644282987" end_time="20:00:00" /><leg mode="car" /><act type="h" x="-14445027.849087471" y="3987834.678020377" start_time="20:00:00" end_time="04:00:00" /></plan></person><person id="90"><plan selected="yes"><act type="h" x="-14441731.823546702" y="3989958.755069228" end_time="20:00:00" /><leg mode="car" /><act type="h" x="-14449168.693993876" y="3989443.368977649" start_time="20:00:00" end_time="04:00:00" /></plan></person><person id="91"><plan selected="yes"><act type="h" x="-14442345.513263492" y="3989973.2355362596" end_time="20:00:00" /><leg mode="car" /><act type="h" x="-14449128.389551966" y="3989547.9772547144" start_time="20:00:00" end_time="04:00:00" /></plan></person><person id="92"><plan selected="yes"><act type="h" x="-14444169.637689702" y="3986289.1335003264" end_time="20:00:00" /><leg mode="car" /><act type="h" x="-14440400.950239958" y="3988407.4692603713" start_time="20:00:00" end_time="04:00:00" /></plan></person><person id="93"><plan selected="yes"><act type="h" x="-14449083.178024117" y="3989135.619006901" end_time="21:00:00" /><leg mode="car" /><act type="h" x="-14444976.255339468" y="3986214.9082372" start_time="21:00:00" end_time="05:00:00" /></plan></person><person id="94"><plan selected="yes"><act type="h" x="-14445569.383662814" y="3989545.826014373" end_time="21:00:00" /><leg mode="car" /><act type="h" x="-14444183.763982074" y="3990022.703186729" start_time="21:00:00" end_time="05:00:00" /></plan></person><person id="95"><plan selected="yes"><act type="h" x="-14449294.073257392" y="3987751.6435155673" end_time="21:00:00" /><leg mode="car" /><act type="h" x="-14446927.851704825" y="3986388.2881172434" start_time="21:00:00" end_time="05:00:00" /></plan></person><person id="96"><plan selected="yes"><act type="h" x="-14445100.509926269" y="3986447.461539895" end_time="21:00:00" /><leg mode="car" /><act type="h" x="-14444164.897993157" y="3990110.659305775" start_time="21:00:00" end_time="05:00:00" /></plan></person><person id="97"><plan selected="yes"><act type="h" x="-14448417.581080269" y="3989599.3422098844" end_time="22:00:00" /><leg mode="car" /><act type="h" x="-14445475.168144612" y="3989858.8921500947" start_time="22:00:00" end_time="06:00:00" /></plan></person><person id="98"><plan selected="yes"><act type="h" x="-14441963.907845" y="3986451.037367951" end_time="22:00:00" /><leg mode="car" /><act type="h" x="-14445110.494607199" y="3986852.2878431412" start_time="22:00:00" end_time="06:00:00" /></plan></person><person id="99"><plan selected="yes"><act type="h" x="-14448358.00824117" y="3989605.666928723" end_time="22:00:00" /><leg mode="car" /><act type="h" x="-14448307.923360588" y="3986202.5826298976" start_time="22:00:00" end_time="06:00:00" /></plan></person><person id="100"><plan selected="yes"><act type="h" x="-14444246.714136738" y="3986292.917769973" end_time="23:00:00" /><leg mode="car" /><act type="h" x="-14445354.396468982" y="3986310.831687221" start_time="23:00:00" end_time="07:00:00" /></plan></person></plans>