<?xml version="1.0" encoding="UTF-8"?>
<!DOCTYPE network SYSTEM "http://www.matsim.org/files/dtd/network_v2.dtd">
<network>

<!-- ====================================================================== -->

	<nodes>
		<node id="10002192851" x="-1.443691940418536E7" y="3986161.341669188" >
		</node>
		<node id="10008038221" x="-1.43919484626477E7" y="3981505.4219221356" >
		</node>
		<node id="10008038222" x="-1.439198360626781E7" y="3981557.876594163" >
		</node>
		<node id="10008038223" x="-1.4392018569662713E7" y="3981553.409694918" >
		</node>
		<node id="10008038224" x="-1.4391983888676105E7" y="3981501.27585498" >
		</node>
		<node id="10008038225" x="-1.4390552515319444E7" y="3980224.7597110807" >
		</node>
		<node id="10008038226" x="-1.439052027694577E7" y="3980162.4460955844" >
		</node>
		<node id="10008038227" x="-1.4390510934463354E7" y="3980166.8510004883" >
		</node>
		<node id="10008038228" x="-1.439060800105099E7" y="3980203.268814755" >
		</node>
		<node id="10008038229" x="-1.4390596613676159E7" y="3980208.684432449" >
		</node>
		<node id="10008038230" x="-1.439055095539771E7" y="3980152.1007068898" >
		</node>
		<node id="10011376434" x="-1.4439703836142402E7" y="3977494.498971543" >
		</node>
		<node id="10011640972" x="-1.4445027829051245E7" y="3987834.696994337" >
		</node>
		<node id="10015669956" x="-1.4439821732779346E7" y="3978575.4397230907" >
		</node>
		<node id="10017659301" x="-1.4440170132854111E7" y="3986061.1023399434" >
		</node>
		<node id="10017931167" x="-1.4439072875992162E7" y="3964396.7231668774" >
		</node>
		<node id="10018297998" x="-1.4439726416332662E7" y="3982481.222827058" >
		</node>
		<node id="10024034778" x="-1.4444842172539685E7" y="3986283.7034666715" >
		</node>
		<node id="10024385561" x="-1.4439545509713981E7" y="3977687.1232320294" >
		</node>
		<node id="10024599729" x="-1.4431196224067148E7" y="3957182.4370804415" >
		</node>
		<node id="10026383784" x="-1.444037276738166E7" y="3999140.4602077752" >
		</node>
		<node id="10029271453" x="-1.4451606178909412E7" y="3986000.105106501" >
		</node>
		<node id="1003337748" x="-1.4447845908511018E7" y="4015173.4747437574" >
		</node>
		<node id="1003337751" x="-1.4447852930972325E7" y="4015454.5209465623" >
		</node>
		<node id="1003337754" x="-1.4447865990000613E7" y="4015622.682607527" >
		</node>
		<node id="1003337756" x="-1.444791044728093E7" y="4015689.690576022" >
		</node>
		<node id="1003380315" x="-1.4448012698655626E7" y="4015621.4040724197" >
		</node>
		<node id="1003380319" x="-1.4447978262283849E7" y="4015557.6203523176" >
		</node>
		<node id="1003380325" x="-1.4447872438742127E7" y="4015515.4116148604" >
		</node>
		<node id="1003380335" x="-1.4447876719994586E7" y="4015566.310219694" >
		</node>
		<node id="1003380336" x="-1.4447974641516374E7" y="4015506.807220169" >
		</node>
		<node id="10038619053" x="-1.4442371029754987E7" y="4013975.6901598247" >
		</node>
		<node id="10038841838" x="-1.4443415547369795E7" y="3989982.1544221323" >
		</node>
		<node id="10039298305" x="-1.4460505660001451E7" y="3984793.01475785" >
		</node>
		<node id="10039673048" x="-1.4441899070789702E7" y="3986455.3630500305" >
		</node>
		<node id="10060890685" x="-1.4438465316522256E7" y="3965049.8482596274" >
		</node>
		<node id="10066803187" x="-1.4453388979571622E7" y="3985814.3045927803" >
		</node>
		<node id="10072730943" x="-1.4437652043616619E7" y="3966937.117352873" >
		</node>
		<node id="10072872311" x="-1.4438189127502225E7" y="3970421.7543267794" >
		</node>
		<node id="10074981981" x="-1.4438405082672266E7" y="3970952.438160479" >
		</node>
		<node id="10076272764" x="-1.4434162275008515E7" y="3978544.7932155617" >
		</node>
		<node id="10076571252" x="-1.4442000428480003E7" y="3995216.6314101946" >
		</node>
		<node id="10076795713" x="-1.44445132666598E7" y="4000827.0762035353" >
		</node>
		<node id="10079363474" x="-1.4443486689543834E7" y="3996105.780053069" >
		</node>
		<node id="10079480603" x="-1.4450621210593024E7" y="4017762.234168362" >
		</node>
		<node id="10081842086" x="-1.4438383795521045E7" y="3965320.600688624" >
		</node>
		<node id="10092331615" x="-1.4473325800455693E7" y="3984766.5970600313" >
		</node>
		<node id="10092331616" x="-1.4473213437073886E7" y="3984791.242800643" >
		</node>
		<node id="10093648144" x="-1.4441991718259094E7" y="3996331.5446790894" >
		</node>
		<node id="10093661027" x="-1.4452790216861865E7" y="4019541.2333203848" >
		</node>
		<node id="10093661028" x="-1.4452825920543196E7" y="4019536.316054136" >
		</node>
		<node id="10093661029" x="-1.4453373502956467E7" y="4027139.558422274" >
		</node>
		<node id="10093661030" x="-1.4453347855280915E7" y="4027129.473044692" >
		</node>
		<node id="10095378438" x="-1.444454160123122E7" y="3999509.5925135203" >
		</node>
		<node id="10097190286" x="-1.4400578483587425E7" y="3988688.7054184894" >
		</node>
		<node id="10097871671" x="-1.4399120701707024E7" y="3988870.9298555315" >
		</node>
		<node id="10098076311" x="-1.4396840075926997E7" y="3989052.2540608863" >
		</node>
		<node id="10098167973" x="-1.4394315952962158E7" y="3986472.3873811606" >
		</node>
		<node id="10100604849" x="-1.445573198555267E7" y="4033333.695438941" >
		</node>
		<node id="10100940903" x="-1.444023076367254E7" y="4004995.0466818935" >
		</node>
		<node id="10108106770" x="-1.443903864166015E7" y="3974317.482597572" >
		</node>
		<node id="10108538384" x="-1.444839057191103E7" y="3984986.8288918147" >
		</node>
		<node id="10108538385" x="-1.4448154550775029E7" y="3983650.07970243" >
		</node>
		<node id="10108538386" x="-1.44481920220546E7" y="3982388.9786903323" >
		</node>
		<node id="10108538388" x="-1.4447831487721032E7" y="3979394.6291711144" >
		</node>
		<node id="10110213709" x="-1.4447174386653759E7" y="3972759.108494139" >
		</node>
		<node id="10110213710" x="-1.444717791083736E7" y="3972812.2474958305" >
		</node>
		<node id="10110213712" x="-1.4447920334862325E7" y="3979547.958481019" >
		</node>
		<node id="10111525087" x="-1.4448175473080555E7" y="3983530.9178268886" >
		</node>
		<node id="10111525088" x="-1.4448154840547232E7" y="3982223.3991670953" >
		</node>
		<node id="10111525090" x="-1.4448018902279956E7" y="3980873.6294613406" >
		</node>
		<node id="10114066218" x="-1.444725368974455E7" y="3974679.0380437006" >
		</node>
		<node id="10114622035" x="-1.4444500294951864E7" y="3966293.011587086" >
		</node>
		<node id="10114622036" x="-1.4444591332702182E7" y="3966287.7974813767" >
		</node>
		<node id="10126131053" x="-1.443092096783723E7" y="3979067.4223621283" >
		</node>
		<node id="10127531964" x="-1.4432669669080835E7" y="3978728.0925346576" >
		</node>
		<node id="10127681621" x="-1.4447276386390192E7" y="3970680.525073103" >
		</node>
		<node id="10129955300" x="-1.4417798799736757E7" y="3947170.888480861" >
		</node>
		<node id="10130233356" x="-1.4418187785989458E7" y="3947572.5443652244" >
		</node>
		<node id="1013077312" x="-1.4445360409367848E7" y="3989282.9035170716" >
		</node>
		<node id="1013077364" x="-1.4445051205761041E7" y="3988077.6994557064" >
		</node>
		<node id="1013077384" x="-1.4445061290006286E7" y="3987170.9008814795" >
		</node>
		<node id="1013077405" x="-1.4445253498740027E7" y="3984174.9963925215" >
		</node>
		<node id="10131871840" x="-1.4448680495299347E7" y="3986224.2473290716" >
		</node>
		<node id="10140069623" x="-1.4439254911416482E7" y="3974759.790901627" >
		</node>
		<node id="10140069624" x="-1.4439233885954253E7" y="3974730.983450921" >
		</node>
		<node id="10140069625" x="-1.4439035290998511E7" y="3974283.05521654" >
		</node>
		<node id="10140069626" x="-1.4439044336131299E7" y="3974058.9913661936" >
		</node>
		<node id="10142916074" x="-1.4439271360542217E7" y="3974617.1729932637" >
		</node>
		<node id="10142916075" x="-1.4439598628179058E7" y="3975546.441111869" >
		</node>
		<node id="10147436753" x="-1.443769503957403E7" y="3967313.988040208" >
		</node>
		<node id="10147436760" x="-1.4437872636204807E7" y="3968832.6910360563" >
		</node>
		<node id="10147436762" x="-1.443785112590461E7" y="3968640.784591368" >
		</node>
		<node id="10148274542" x="-1.4439252047187844E7" y="3966687.4329350567" >
		</node>
		<node id="10161173071" x="-1.4398746013013458E7" y="3989078.261035517" >
		</node>
		<node id="10188452441" x="-1.4440072141940901E7" y="3966248.4485053243" >
		</node>
		<node id="10220000382" x="-1.4449147179918977E7" y="3989004.672877711" >
		</node>
		<node id="10220000385" x="-1.4449137551458856E7" y="3989006.5254040454" >
		</node>
		<node id="10220000386" x="-1.4449151939799473E7" y="3989061.9529866683" >
		</node>
		<node id="10220000387" x="-1.4449140921792163E7" y="3989064.2693128544" >
		</node>
		<node id="10223479948" x="-1.443972789045755E7" y="3976129.4110695766" >
		</node>
		<node id="10225510385" x="-1.4445116314459644E7" y="3987550.6230720747" >
		</node>
		<node id="1025840246" x="-1.44420365918142E7" y="4010961.893477061" >
		</node>
		<node id="1025840251" x="-1.4442043740317311E7" y="4011009.0413550306" >
		</node>
		<node id="1025840255" x="-1.444200952811862E7" y="4010960.1202818183" >
		</node>
		<node id="10264425407" x="-1.444525958614536E7" y="3983922.7812740314" >
		</node>
		<node id="1027676477" x="-1.4441354174318612E7" y="4009873.9064884176" >
		</node>
		<node id="10295120931" x="-1.4439679487667488E7" y="3982105.4893178544" >
		</node>
		<node id="10299907035" x="-1.4442558368584823E7" y="4011999.957849672" >
		</node>
		<node id="10300550687" x="-1.4402157894989936E7" y="3985891.04249617" >
		</node>
		<node id="10300550690" x="-1.4402145824041622E7" y="3985993.7348449393" >
		</node>
		<node id="10300550693" x="-1.4402161208236216E7" y="3985960.348940858" >
		</node>
		<node id="10302240717" x="-1.4399066967736296E7" y="3984033.732200325" >
		</node>
		<node id="10302240719" x="-1.439940753907713E7" y="3984452.935890927" >
		</node>
		<node id="10302240726" x="-1.43991732522147E7" y="3984172.9587448216" >
		</node>
		<node id="10313134680" x="-1.4402370111868909E7" y="3988822.102661162" >
		</node>
		<node id="10539656544" x="-1.4445019824760381E7" y="3987575.5902798367" >
		</node>
		<node id="10539656545" x="-1.4445117784629138E7" y="3987762.0651678657" >
		</node>
		<node id="10564302634" x="-1.4440728278398696E7" y="3988635.586478513" >
		</node>
		<node id="10566978220" x="-1.4438871197142996E7" y="3972042.699616961" >
		</node>
		<node id="10593109862" x="-1.4439825673641445E7" y="3977195.7309780554" >
		</node>
		<node id="10593194057" x="-1.4441462180116702E7" y="3989587.7895334647" >
		</node>
		<node id="10593214609" x="-1.4443977412429247E7" y="3986332.2285338496" >
		</node>
		<node id="10594454198" x="-1.4447285421142137E7" y="3975760.322836983" >
		</node>
		<node id="10594454199" x="-1.444727369197493E7" y="3975625.102051266" >
		</node>
		<node id="10698125084" x="-1.444122416215982E7" y="3991623.5918006646" >
		</node>
		<node id="10699903579" x="-1.443768549563703E7" y="3967033.8214417887" >
		</node>
		<node id="10699903581" x="-1.443775635041175E7" y="3967051.9266157863" >
		</node>
		<node id="10711273238" x="-1.4454802707857497E7" y="4031897.956903841" >
		</node>
		<node id="10711273247" x="-1.445473424618772E7" y="4031709.4536497486" >
		</node>
		<node id="10711273261" x="-1.4454605439381454E7" y="4031796.403513711" >
		</node>
		<node id="10711282327" x="-1.4455998640671434E7" y="4037301.914039735" >
		</node>
		<node id="10711294121" x="-1.445962275251315E7" y="4047247.7114396137" >
		</node>
		<node id="10711316942" x="-1.4455971025995445E7" y="4033945.4970773207" >
		</node>
		<node id="10711316945" x="-1.4455840227756957E7" y="4033786.4564068546" >
		</node>
		<node id="10711326705" x="-1.4454439476326527E7" y="4030473.133507584" >
		</node>
		<node id="10711343137" x="-1.4397275013464915E7" y="3989790.1616084324" >
		</node>
		<node id="10711343139" x="-1.439740735710376E7" y="3989632.722536463" >
		</node>
		<node id="10711343142" x="-1.4397348597823262E7" y="3989578.870282363" >
		</node>
		<node id="10745304876" x="-1.4405517604805252E7" y="3954954.503114014" >
		</node>
		<node id="10745304881" x="-1.4405415346351504E7" y="3954986.7740484127" >
		</node>
		<node id="1081039031" x="-1.4453701659742901E7" y="4054271.203385946" >
		</node>
		<node id="1081041027" x="-1.445400767741032E7" y="4053724.4773111767" >
		</node>
		<node id="1081041041" x="-1.4453710826791704E7" y="4054249.0828243843" >
		</node>
		<node id="1081504796" x="-1.4449707122794619E7" y="4058960.0998793584" >
		</node>
		<node id="10816836196" x="-1.440162593550502E7" y="3957080.6571490634" >
		</node>
		<node id="10816836197" x="-1.4401636858753495E7" y="3957054.569664538" >
		</node>
		<node id="10860485414" x="-1.4369242862713253E7" y="3952390.932859031" >
		</node>
		<node id="10867693640" x="-1.4438278791697584E7" y="3970326.9983648146" >
		</node>
		<node id="10867693642" x="-1.4438193213240968E7" y="3970145.825608338" >
		</node>
		<node id="10870883066" x="-1.4437822433374597E7" y="3969254.217420128" >
		</node>
		<node id="10870883067" x="-1.443788816845314E7" y="3969441.1667667674" >
		</node>
		<node id="1088782196" x="-1.4380478208569035E7" y="3963770.214331191" >
		</node>
		<node id="1088782556" x="-1.4372144330520475E7" y="3957344.9775230587" >
		</node>
		<node id="10889532124" x="-1.4438181569023632E7" y="3970379.5217896635" >
		</node>
		<node id="10905144761" x="-1.445477674287192E7" y="4021116.5236227945" >
		</node>
		<node id="10905144766" x="-1.4454748009327943E7" y="4021093.958805821" >
		</node>
		<node id="10908444529" x="-1.4398850880835079E7" y="3983719.1450654618" >
		</node>
		<node id="10959274212" x="-1.4441097266795967E7" y="3989074.7720730826" >
		</node>
		<node id="10961076354" x="-1.4447224113402933E7" y="3975805.6932839793" >
		</node>
		<node id="10961136347" x="-1.4447199131515516E7" y="3973833.1580561916" >
		</node>
		<node id="10961313781" x="-1.4447497346919715E7" y="3978573.889371034" >
		</node>
		<node id="10962898616" x="-1.444728829177861E7" y="3974085.7104687677" >
		</node>
		<node id="10965502197" x="-1.4447777978656327E7" y="3970158.00211757" >
		</node>
		<node id="10970194482" x="-1.4447403686474847E7" y="3978376.115595935" >
		</node>
		<node id="10970438622" x="-1.4447052565700643E7" y="3971504.619749322" >
		</node>
		<node id="10970600442" x="-1.4455010902801184E7" y="4021129.5024019107" >
		</node>
		<node id="10972448026" x="-1.4447704166236069E7" y="3969937.8423563954" >
		</node>
		<node id="10972480260" x="-1.4449862698703961E7" y="4017062.855581587" >
		</node>
		<node id="10972786861" x="-1.4447676619511781E7" y="3968941.9078214536" >
		</node>
		<node id="10976450889" x="-1.4442513252036208E7" y="4012020.933084948" >
		</node>
		<node id="10983679779" x="-1.4410134720590621E7" y="3937191.626232883" >
		</node>
		<node id="10983774785" x="-1.444271493215402E7" y="4016676.2557893377" >
		</node>
		<node id="10991855570" x="-1.4429736674621018E7" y="4023597.4818885326" >
		</node>
		<node id="10991890910" x="-1.446908128062369E7" y="3987189.77766462" >
		</node>
		<node id="10991896928" x="-1.4427850428985339E7" y="4022830.6973399282" >
		</node>
		<node id="10991911491" x="-1.4389912658711309E7" y="3979595.928253439" >
		</node>
		<node id="10994055942" x="-1.4410239659349574E7" y="3938144.978759077" >
		</node>
		<node id="11036999725" x="-1.4442787927383225E7" y="4020673.684410706" >
		</node>
		<node id="11049038545" x="-1.4364213055187102E7" y="3921655.8345217328" >
		</node>
		<node id="11049038546" x="-1.4363984773512913E7" y="3921594.2426466485" >
		</node>
		<node id="11049038547" x="-1.4363886238657832E7" y="3921567.206911189" >
		</node>
		<node id="11049270405" x="-1.4391115621440722E7" y="3924223.825752192" >
		</node>
		<node id="11049270406" x="-1.4390337362941325E7" y="3924150.9501508693" >
		</node>
		<node id="11049270407" x="-1.4378421093967186E7" y="3923513.2561166496" >
		</node>
		<node id="11049270408" x="-1.4377076018421004E7" y="3923101.973414094" >
		</node>
		<node id="11049270409" x="-1.4376769496505715E7" y="3923015.9052310074" >
		</node>
		<node id="11049270410" x="-1.4375487280065933E7" y="3922645.404267474" >
		</node>
		<node id="11049270411" x="-1.437308453254266E7" y="3922032.055605476" >
		</node>
		<node id="11049270412" x="-1.4366316572620029E7" y="3921964.768834999" >
		</node>
		<node id="11051475307" x="-1.4404073446479972E7" y="3931432.7082678704" >
		</node>
		<node id="11051475308" x="-1.4403645814414691E7" y="3931211.7550122757" >
		</node>
		<node id="11051475309" x="-1.4403230322481172E7" y="3931006.160846345" >
		</node>
		<node id="11051475310" x="-1.4396644108340079E7" y="3927368.3852766748" >
		</node>
		<node id="11051475311" x="-1.4396343428009545E7" y="3927328.122726091" >
		</node>
		<node id="11051516216" x="-1.44522355273643E7" y="4062108.6131992736" >
		</node>
		<node id="11051516277" x="-1.4450166993323438E7" y="4059553.526467911" >
		</node>
		<node id="11051516281" x="-1.4450543193690887E7" y="4059889.190415569" >
		</node>
		<node id="11051516282" x="-1.4450558903697506E7" y="4059882.234129848" >
		</node>
		<node id="11053505905" x="-1.4409752241735345E7" y="3934580.4468088686" >
		</node>
		<node id="11053505906" x="-1.4409773591201011E7" y="3934593.32874181" >
		</node>
		<node id="11053505908" x="-1.4409711591825366E7" y="3934555.92931959" >
		</node>
		<node id="11053505913" x="-1.4409607232838461E7" y="3934497.8672605567" >
		</node>
		<node id="11053505914" x="-1.440956186685114E7" y="3934471.314640798" >
		</node>
		<node id="11053505915" x="-1.4409444974219108E7" y="3934403.8364885803" >
		</node>
		<node id="11053505916" x="-1.4409431840129344E7" y="3934396.271479305" >
		</node>
		<node id="11053505917" x="-1.440938461806358E7" y="3934369.062568172" >
		</node>
		<node id="11053505918" x="-1.4409357113715198E7" y="3934353.2136536343" >
		</node>
		<node id="11053505919" x="-1.4409201080845175E7" y="3934260.8213985977" >
		</node>
		<node id="11053505920" x="-1.4408190022982286E7" y="3933333.162376536" >
		</node>
		<node id="11053505921" x="-1.4406345851624893E7" y="3932620.348350455" >
		</node>
		<node id="11053505922" x="-1.4406334358381307E7" y="3932615.9118601573" >
		</node>
		<node id="11053505923" x="-1.440629977175272E7" y="3932602.5816169875" >
		</node>
		<node id="11053505924" x="-1.4406137055243172E7" y="3932539.496824831" >
		</node>
		<node id="11053505925" x="-1.4406154583104964E7" y="3932546.2877263245" >
		</node>
		<node id="11053505926" x="-1.440612482591326E7" y="3932534.7615227276" >
		</node>
		<node id="11053505927" x="-1.4406091619906092E7" y="3932521.9079531073" >
		</node>
		<node id="11053505928" x="-1.4404875368391464E7" y="3932050.5397457816" >
		</node>
		<node id="11053505929" x="-1.4404813652106114E7" y="3932026.6957411924" >
		</node>
		<node id="11053505930" x="-1.4404564047595613E7" y="3931930.92040622" >
		</node>
		<node id="11053505931" x="-1.4404501237738136E7" y="3931906.6269357125" >
		</node>
		<node id="11059788217" x="-1.4361914265229804E7" y="3920114.577007198" >
		</node>
		<node id="11059788218" x="-1.4361937215501374E7" y="3920314.6498026405" >
		</node>
		<node id="11060698311" x="-1.4411936880698122E7" y="3946403.4334086003" >
		</node>
		<node id="11060698314" x="-1.4411830499057041E7" y="3947556.7460337873" >
		</node>
		<node id="11066410582" x="-1.4389122187572923E7" y="4008405.3817259986" >
		</node>
		<node id="11076024260" x="-1.4461893289475886E7" y="3984709.531763664" >
		</node>
		<node id="11117993788" x="-1.4412161487641916E7" y="3942461.8505009506" >
		</node>
		<node id="11121985760" x="-1.4455957506570868E7" y="4034737.552442641" >
		</node>
		<node id="11196218759" x="-1.4454962400037913E7" y="4021067.5020974795" >
		</node>
		<node id="11197017536" x="-1.4445484638021631E7" y="4010248.961222573" >
		</node>
		<node id="1120174912" x="-1.4408768488381976E7" y="3933840.642105632" >
		</node>
		<node id="11216197204" x="-1.4411822054826692E7" y="3943967.221168665" >
		</node>
		<node id="11240512693" x="-1.4480298094913669E7" y="3977273.585134889" >
		</node>
		<node id="11240512694" x="-1.4480300837389378E7" y="3977285.9507906185" >
		</node>
		<node id="11244316332" x="-1.4399220288028069E7" y="3984257.175813953" >
		</node>
		<node id="11270882990" x="-1.445486175159341E7" y="4024835.145490406" >
		</node>
		<node id="11415855013" x="-1.4409672421063153E7" y="3934534.48844948" >
		</node>
		<node id="11476616551" x="-1.444761975475743E7" y="3967959.655620457" >
		</node>
		<node id="11495514534" x="-1.4462318615054905E7" y="4019162.2358247996" >
		</node>
		<node id="11495514549" x="-1.4454840656600282E7" y="4014963.1872514477" >
		</node>
		<node id="11495677878" x="-1.4416736793313907E7" y="3951059.4069508556" >
		</node>
		<node id="11495677880" x="-1.4416750933604335E7" y="3951050.4743671063" >
		</node>
		<node id="11500581183" x="-1.445342115845883E7" y="3985181.453651245" >
		</node>
		<node id="11560169344" x="-1.444939153919595E7" y="4023892.595762544" >
		</node>
		<node id="11560173648" x="-1.444139400822913E7" y="3991798.64082798" >
		</node>
		<node id="11560176590" x="-1.4442782052082893E7" y="4019267.0587292346" >
		</node>
		<node id="1173940983" x="-1.443817338115321E7" y="3970104.485567933" >
		</node>
		<node id="1173975086" x="-1.4444499787928594E7" y="3986292.915534957" >
		</node>
		<node id="1173975116" x="-1.4444318563495211E7" y="3986282.670220447" >
		</node>
		<node id="11875710299" x="-1.445495651911642E7" y="4024384.176178452" >
		</node>
		<node id="11932941567" x="-1.4441494741931308E7" y="3989675.8779821815" >
		</node>
		<node id="11932968879" x="-1.4441484020953177E7" y="3989675.6757052517" >
		</node>
		<node id="11932968884" x="-1.4441499416750902E7" y="3989684.0691079586" >
		</node>
		<node id="12008521387" x="-1.4397363278763283E7" y="3989573.0035804408" >
		</node>
		<node id="12008521388" x="-1.4397443603989933E7" y="3989658.8483954077" >
		</node>
		<node id="12094278022" x="-1.440245731383263E7" y="3989007.584915575" >
		</node>
		<node id="12094278029" x="-1.4402330458038628E7" y="3988890.6061164294" >
		</node>
		<node id="12094310009" x="-1.4402122952829333E7" y="3988904.833127843" >
		</node>
		<node id="12099476424" x="-1.4438899583002243E7" y="4073658.2445113044" >
		</node>
		<node id="12140563298" x="-1.4462336394054895E7" y="4019209.3934933892" >
		</node>
		<node id="12151207575" x="-1.4447143649817178E7" y="3972559.9339991882" >
		</node>
		<node id="12158508648" x="-1.4438125718999768E7" y="4074299.157027342" >
		</node>
		<node id="12175839365" x="-1.4398380965653462E7" y="3927755.8621776174" >
		</node>
		<node id="12177755985" x="-1.438003648009699E7" y="3924159.028284124" >
		</node>
		<node id="12177755986" x="-1.4379390143924955E7" y="3923913.8368938575" >
		</node>
		<node id="12177755987" x="-1.4384189396066949E7" y="3924657.980554446" >
		</node>
		<node id="12177755999" x="-1.4350320877062509E7" y="3920786.401401756" >
		</node>
		<node id="12178543688" x="-1.4396277863591347E7" y="3988541.815563654" >
		</node>
		<node id="12178543689" x="-1.4396937094157869E7" y="3989188.649588299" >
		</node>
		<node id="1218576975" x="-1.4441490731277363E7" y="3989685.7772725057" >
		</node>
		<node id="1218576977" x="-1.4441482774475072E7" y="3989687.8345253738" >
		</node>
		<node id="1218576986" x="-1.4441494929311868E7" y="3989674.015863681" >
		</node>
		<node id="1218576992" x="-1.4441490456052551E7" y="3989680.5156707168" >
		</node>
		<node id="1218576993" x="-1.4441517543649934E7" y="3989681.1070740162" >
		</node>
		<node id="1218577008" x="-1.444148312309226E7" y="3989674.4197914083" >
		</node>
		<node id="1218577016" x="-1.444152738894401E7" y="3989685.5077971187" >
		</node>
		<node id="12195909946" x="-1.4456944330572007E7" y="4053025.344621652" >
		</node>
		<node id="12195909968" x="-1.4457092667544734E7" y="4053016.9746101853" >
		</node>
		<node id="12195911101" x="-1.4455988733749129E7" y="4053081.3185353116" >
		</node>
		<node id="12195911108" x="-1.4456802127995338E7" y="4053033.7348551285" >
		</node>
		<node id="12204798570" x="-1.4455177192759292E7" y="4023668.8005470005" >
		</node>
		<node id="12209150839" x="-1.4440768901072837E7" y="4004045.8729939847" >
		</node>
		<node id="12253183215" x="-1.4448150671681324E7" y="3981726.139589236" >
		</node>
		<node id="12253183216" x="-1.4448036072915755E7" y="3981138.1220079097" >
		</node>
		<node id="12262712962" x="-1.444724323718439E7" y="3966618.756923677" >
		</node>
		<node id="12262712966" x="-1.4447313911103075E7" y="3966691.88621868" >
		</node>
		<node id="12346373180" x="-1.4442847405499522E7" y="4017781.040904042" >
		</node>
		<node id="12349505806" x="-1.4439690701841928E7" y="3977106.0476159053" >
		</node>
		<node id="12406030997" x="-1.441014354283692E7" y="3937425.936085416" >
		</node>
		<node id="12406091486" x="-1.4411316241678635E7" y="3941657.5725594666" >
		</node>
		<node id="12406394858" x="-1.4419168373662392E7" y="3949117.1781051373" >
		</node>
		<node id="12406406930" x="-1.4438052360063612E7" y="3965570.484575608" >
		</node>
		<node id="12406409456" x="-1.4448178155190915E7" y="3986207.4494092595" >
		</node>
		<node id="12406412917" x="-1.443867231479453E7" y="3978534.4020295395" >
		</node>
		<node id="12406416331" x="-1.4419383633547788E7" y="3951383.6116660065" >
		</node>
		<node id="12406423600" x="-1.4428521206136053E7" y="3955917.0733723296" >
		</node>
		<node id="12406424990" x="-1.4415026910924414E7" y="3944502.165037225" >
		</node>
		<node id="12406431531" x="-1.4438887567530863E7" y="3964646.35941399" >
		</node>
		<node id="12406436982" x="-1.4437787003366416E7" y="3968561.2238550778" >
		</node>
		<node id="12406451327" x="-1.4439637393890278E7" y="3977960.3988760253" >
		</node>
		<node id="12406471293" x="-1.4437674139993666E7" y="3966498.7668463145" >
		</node>
		<node id="12406489093" x="-1.4419274151898067E7" y="3949988.5442295745" >
		</node>
		<node id="12406498344" x="-1.4424675349390766E7" y="3954313.266587593" >
		</node>
		<node id="12424823125" x="-1.444156955237519E7" y="4071690.8954481916" >
		</node>
		<node id="12437851586" x="-1.4428624859977432E7" y="3985238.3509765533" >
		</node>
		<node id="12438006289" x="-1.441923423110105E7" y="3950010.531504592" >
		</node>
		<node id="12438006290" x="-1.4419237875431137E7" y="3950054.4009079793" >
		</node>
		<node id="12438015561" x="-1.4414971713456944E7" y="3944495.2255201307" >
		</node>
		<node id="12438027640" x="-1.442631508479802E7" y="3955115.537850563" >
		</node>
		<node id="12438151071" x="-1.443772679396764E7" y="3967475.4659019033" >
		</node>
		<node id="12438204728" x="-1.4437723319958478E7" y="3966638.038992948" >
		</node>
		<node id="12479858948" x="-1.4402346135124452E7" y="3988450.133349965" >
		</node>
		<node id="12479919390" x="-1.440235899960953E7" y="3988679.614751013" >
		</node>
		<node id="12480288219" x="-1.4402328994761152E7" y="3988025.9554962525" >
		</node>
		<node id="12480840800" x="-1.4402403808402892E7" y="3987367.434310263" >
		</node>
		<node id="12480907201" x="-1.4402376395294765E7" y="3987437.9140121657" >
		</node>
		<node id="12485078709" x="-1.4402351092242986E7" y="3988548.9675985007" >
		</node>
		<node id="12486323442" x="-1.4398720575347712E7" y="3983526.9709057277" >
		</node>
		<node id="12486323443" x="-1.4398657964704199E7" y="3983438.692788071" >
		</node>
		<node id="12486373454" x="-1.4398950131302826E7" y="3983866.3020573403" >
		</node>
		<node id="12486373455" x="-1.4399041591631724E7" y="3983996.7522100937" >
		</node>
		<node id="12486373456" x="-1.4399024220385619E7" y="3983971.444839982" >
		</node>
		<node id="12487570479" x="-1.439878457882713E7" y="3983619.747738925" >
		</node>
		<node id="12487614692" x="-1.4402165026997136E7" y="3986211.149168442" >
		</node>
		<node id="12487640711" x="-1.4402173640590442E7" y="3986343.2151251906" >
		</node>
		<node id="12499995204" x="-1.4446288253872318E7" y="3986304.3512278935" >
		</node>
		<node id="12506518182" x="-1.4445209237138955E7" y="3966270.056295038" >
		</node>
		<node id="12506518189" x="-1.4444713203512602E7" y="3966246.32171357" >
		</node>
		<node id="12506518198" x="-1.4444177194397196E7" y="3966296.729528861" >
		</node>
		<node id="12507150945" x="-1.4397313709873592E7" y="3983625.8737271666" >
		</node>
		<node id="12507220925" x="-1.4396578324597374E7" y="3984038.043420987" >
		</node>
		<node id="12507220926" x="-1.4396438117001468E7" y="3984057.8456869633" >
		</node>
		<node id="12507235497" x="-1.4395778982157618E7" y="3984130.6586159216" >
		</node>
		<node id="12507235499" x="-1.4395935854593037E7" y="3984114.932039489" >
		</node>
		<node id="12507243913" x="-1.4393501702176329E7" y="3985570.371710982" >
		</node>
		<node id="12508194327" x="-1.4396928604225384E7" y="3983891.3563287244" >
		</node>
		<node id="12508194328" x="-1.439698489245702E7" y="3983853.1187600684" >
		</node>
		<node id="12508510796" x="-1.4394221222902717E7" y="3984668.861033216" >
		</node>
		<node id="12508510797" x="-1.439407585841601E7" y="3984882.8735531685" >
		</node>
		<node id="12508510798" x="-1.4394249404660862E7" y="3984645.567154891" >
		</node>
		<node id="12508510799" x="-1.4394188692342542E7" y="3984702.994620975" >
		</node>
		<node id="12508522613" x="-1.4396873385180375E7" y="3983925.984324869" >
		</node>
		<node id="12508527286" x="-1.4396256468843114E7" y="3984080.173666214" >
		</node>
		<node id="12508572555" x="-1.439388071128951E7" y="3985230.299885967" >
		</node>
		<node id="12508604246" x="-1.4393790078052923E7" y="3985390.748811448" >
		</node>
		<node id="12527551683" x="-1.4438519316890033E7" y="4073924.155511881" >
		</node>
		<node id="1318665049" x="-1.4387363137640478E7" y="3924370.5446442547" >
		</node>
		<node id="1318665051" x="-1.4373270506326409E7" y="3922220.206826756" >
		</node>